sim-profile: SimpleScalar/PISA Tool Set version 3.0 of August, 2003.
Copyright (c) 1994-2003 by Todd M. Austin, Ph.D. and SimpleScalar, LLC.
All Rights Reserved. This version of SimpleScalar is licensed for academic
non-commercial use.  No portion of this work may be used by any commercial
entity, or for any commercial purpose, without the prior written permission
of SimpleScalar, LLC (info@simplescalar.com).

sim: command line: /home/sudiptac/sudiptac/Work/simplesim-3.0/sim-profile -pcstat sim_num_insn nsichneu 

sim: simulation started @ Tue Jun  5 15:50:21 2012, options follow:

sim-profile: This simulator implements a functional simulator with
profiling support.  Run with the `-h' flag to see profiling options
available.

# -config                     # load configuration from a file
# -dumpconfig                 # dump configuration to a file
# -h                    false # print help message    
# -v                    false # verbose operation     
# -d                    false # enable debug message  
# -i                    false # start in Dlite debugger
-seed                       1 # random number generator seed (0 for timer seed)
# -q                    false # initialize and terminate immediately
# -chkpt               <null> # restore EIO trace execution from <fname>
# -redir:sim           <null> # redirect simulator output to file (non-interactive only)
# -redir:prog          <null> # redirect simulated target_name output to file
-nice                       0 # simulator scheduling priority
-max:inst                   0 # maximum number of inst's to execute
-all                    false # enable all profile options
-iclass                 false # enable instruction class profiling
-iprof                  false # enable instruction profiling
-brprof                 false # enable branch instruction profiling
-amprof                 false # enable address mode profiling
-segprof                false # enable load/store address segment profiling
-tsymprof               false # enable text symbol profiling
-taddrprof              false # enable text address profiling
-dsymprof               false # enable data symbol profiling
-internal               false # include compiler-internal symbols during symbol profiling
# -pcstat        sim_num_insn # profile stat(s) against text addr's (mult uses ok)

sim: ** starting functional simulation **

sim: ** simulation statistics **
sim_num_insn                  10250 # total number of instructions executed
sim_num_refs                   5581 # total number of loads and stores executed
sim_elapsed_time                  1 # total simulation time in seconds
sim_inst_rate            10250.0000 # simulation speed (in insts/sec)

sim_num_insn_by_pc     # total number of instructions executed (by text address)
sim_num_insn_by_pc.count = 2925
sim_num_insn_by_pc.total = 10249
sim_num_insn_by_pc.imin = 0x400140
sim_num_insn_by_pc.imax = 0x40e890
sim_num_insn_by_pc.average =   3.5039
sim_num_insn_by_pc.std_dev =  24.8179
sim_num_insn_by_pc.overflows = 0
# pdf == prob dist fn, cdf == cumulative dist fn
#          index      count    pdf 
sim_num_insn_by_pc.start_dist
0x400140 1 0.01
0x400148 1 0.01
0x400150 1 0.01
0x400158 1 0.01
0x400160 1 0.01
0x400168 1 0.01
0x400170 1 0.01
0x400178 1 0.01
0x400180 1 0.01
0x400188 1 0.01
0x400190 1 0.01
0x400198 1 0.01
0x4001a0 1 0.01
0x4001a8 1 0.01
0x4001b0 1 0.01
0x4001b8 1 0.01
0x4001c0 1 0.01
0x4001c8 1 0.01
0x4001d0 1 0.01
0x4001d8 1 0.01
0x4001e0 1 0.01
0x4001f0 1 0.01
0x4001f8 1 0.01
0x400200 1 0.01
0x400208 1 0.01
0x400210 1 0.01
0x400218 1 0.01
0x400220 1 0.01
0x400228 1 0.01
0x400230 1 0.01
0x400238 1 0.01
0x400240 1 0.01
0x400248 2 0.02
0x400250 2 0.02
0x400258 2 0.02
0x400260 2 0.02
0x400268 2 0.02
0x400270 2 0.02
0x400278 2 0.02
0x400280 2 0.02
0x400288 2 0.02
0x400290 2 0.02
0x400298 2 0.02
0x4002a0 2 0.02
0x4002a8 2 0.02
0x4002b0 2 0.02
0x4002b8 2 0.02
0x4002c0 2 0.02
0x4002c8 2 0.02
0x4002d0 2 0.02
0x4002d8 2 0.02
0x400378 2 0.02
0x400380 2 0.02
0x400388 2 0.02
0x400390 2 0.02
0x400398 2 0.02
0x4003a0 2 0.02
0x4003a8 2 0.02
0x4003b0 2 0.02
0x4003b8 2 0.02
0x4003c0 2 0.02
0x4003c8 2 0.02
0x4003d0 2 0.02
0x4003d8 2 0.02
0x4003e0 2 0.02
0x4003e8 2 0.02
0x4003f0 2 0.02
0x4003f8 2 0.02
0x400400 2 0.02
0x4004a0 2 0.02
0x4004a8 2 0.02
0x4004b0 2 0.02
0x4004b8 2 0.02
0x4004c0 2 0.02
0x4004c8 2 0.02
0x4004d0 2 0.02
0x4004d8 2 0.02
0x4004e0 2 0.02
0x4004e8 2 0.02
0x4004f0 2 0.02
0x4004f8 2 0.02
0x400500 2 0.02
0x400508 2 0.02
0x400510 2 0.02
0x400518 2 0.02
0x400520 2 0.02
0x400528 2 0.02
0x4005c8 2 0.02
0x4005d0 2 0.02
0x4005d8 2 0.02
0x4005e0 2 0.02
0x4005e8 2 0.02
0x4005f0 2 0.02
0x4005f8 2 0.02
0x400600 2 0.02
0x400608 2 0.02
0x400610 2 0.02
0x400618 2 0.02
0x400620 2 0.02
0x400628 2 0.02
0x400630 2 0.02
0x400638 2 0.02
0x400640 2 0.02
0x400648 2 0.02
0x400650 2 0.02
0x4006f0 2 0.02
0x4006f8 2 0.02
0x400700 2 0.02
0x400708 2 0.02
0x400710 2 0.02
0x400718 2 0.02
0x400720 2 0.02
0x400728 2 0.02
0x400730 2 0.02
0x400738 2 0.02
0x400740 2 0.02
0x400748 2 0.02
0x400750 2 0.02
0x400758 2 0.02
0x400760 2 0.02
0x400768 2 0.02
0x400770 2 0.02
0x400778 2 0.02
0x400818 2 0.02
0x400820 2 0.02
0x400828 2 0.02
0x400830 2 0.02
0x400838 2 0.02
0x400840 2 0.02
0x400848 2 0.02
0x400850 2 0.02
0x400858 2 0.02
0x400860 2 0.02
0x400868 2 0.02
0x400870 2 0.02
0x400878 2 0.02
0x400880 2 0.02
0x400888 2 0.02
0x400890 2 0.02
0x400898 2 0.02
0x4008a0 2 0.02
0x400940 2 0.02
0x400948 2 0.02
0x400950 2 0.02
0x400958 2 0.02
0x400960 2 0.02
0x400968 2 0.02
0x400970 2 0.02
0x400978 2 0.02
0x400980 2 0.02
0x400988 2 0.02
0x400990 2 0.02
0x400998 2 0.02
0x4009a0 2 0.02
0x4009a8 2 0.02
0x4009b0 2 0.02
0x4009b8 2 0.02
0x4009c0 2 0.02
0x400a60 2 0.02
0x400a68 2 0.02
0x400a70 2 0.02
0x400a78 2 0.02
0x400a80 2 0.02
0x400a88 2 0.02
0x400a90 2 0.02
0x400a98 2 0.02
0x400aa0 2 0.02
0x400aa8 2 0.02
0x400ab0 2 0.02
0x400ab8 2 0.02
0x400ac0 2 0.02
0x400ac8 2 0.02
0x400ad0 2 0.02
0x400ad8 2 0.02
0x400ae0 2 0.02
0x400b80 2 0.02
0x400b88 2 0.02
0x400b90 2 0.02
0x400b98 2 0.02
0x400ba0 2 0.02
0x400ba8 2 0.02
0x400bb0 2 0.02
0x400bb8 2 0.02
0x400bc0 2 0.02
0x400bc8 2 0.02
0x400bd0 2 0.02
0x400bd8 2 0.02
0x400be0 2 0.02
0x400be8 2 0.02
0x400bf0 2 0.02
0x400bf8 2 0.02
0x400c00 2 0.02
0x400ca0 2 0.02
0x400ca8 2 0.02
0x400cb0 2 0.02
0x400cb8 2 0.02
0x400cc0 2 0.02
0x400cc8 2 0.02
0x400cd0 2 0.02
0x400cd8 2 0.02
0x400ce0 2 0.02
0x400ce8 2 0.02
0x400cf0 2 0.02
0x400cf8 2 0.02
0x400d00 2 0.02
0x400d08 2 0.02
0x400d10 2 0.02
0x400d18 2 0.02
0x400d20 2 0.02
0x400dc0 2 0.02
0x400dc8 2 0.02
0x400dd0 2 0.02
0x400dd8 2 0.02
0x400de0 2 0.02
0x400de8 2 0.02
0x400df0 2 0.02
0x400df8 2 0.02
0x400e00 2 0.02
0x400e08 2 0.02
0x400e10 2 0.02
0x400e18 2 0.02
0x400e20 2 0.02
0x400e28 2 0.02
0x400e30 2 0.02
0x400e38 2 0.02
0x400e40 2 0.02
0x400ee0 2 0.02
0x400ee8 2 0.02
0x400ef0 2 0.02
0x400ef8 2 0.02
0x400f00 2 0.02
0x400f08 2 0.02
0x400f10 2 0.02
0x400f18 2 0.02
0x400f20 2 0.02
0x400f28 2 0.02
0x400f30 2 0.02
0x400f38 2 0.02
0x400f40 2 0.02
0x400f48 2 0.02
0x400f50 2 0.02
0x400f58 2 0.02
0x400f60 2 0.02
0x401000 2 0.02
0x401008 2 0.02
0x401010 2 0.02
0x401018 2 0.02
0x401020 2 0.02
0x401028 2 0.02
0x401030 2 0.02
0x401038 2 0.02
0x401040 2 0.02
0x401048 2 0.02
0x401050 2 0.02
0x401058 2 0.02
0x401060 2 0.02
0x401068 2 0.02
0x401070 2 0.02
0x401078 2 0.02
0x401080 2 0.02
0x401120 2 0.02
0x401128 2 0.02
0x401130 2 0.02
0x401138 2 0.02
0x401140 2 0.02
0x401148 2 0.02
0x401150 2 0.02
0x401158 2 0.02
0x401160 2 0.02
0x401168 2 0.02
0x401170 2 0.02
0x401178 2 0.02
0x401180 2 0.02
0x401188 2 0.02
0x401190 2 0.02
0x401198 2 0.02
0x4011a0 2 0.02
0x401240 2 0.02
0x401248 2 0.02
0x401250 2 0.02
0x401258 2 0.02
0x401260 2 0.02
0x401268 2 0.02
0x401270 2 0.02
0x401278 2 0.02
0x401280 2 0.02
0x401288 2 0.02
0x401290 2 0.02
0x401298 2 0.02
0x4012a0 2 0.02
0x4012a8 2 0.02
0x4012b0 2 0.02
0x4012b8 2 0.02
0x4012c0 2 0.02
0x401360 2 0.02
0x401368 2 0.02
0x401370 2 0.02
0x401378 2 0.02
0x401380 2 0.02
0x401388 2 0.02
0x401390 2 0.02
0x401398 2 0.02
0x4013a0 2 0.02
0x4013a8 2 0.02
0x4013b0 2 0.02
0x4013b8 2 0.02
0x4013c0 2 0.02
0x4013c8 2 0.02
0x4013d0 2 0.02
0x4013d8 2 0.02
0x4013e0 2 0.02
0x401480 2 0.02
0x401488 2 0.02
0x401490 2 0.02
0x401498 2 0.02
0x4014a0 2 0.02
0x4014a8 2 0.02
0x4014b0 2 0.02
0x4014b8 2 0.02
0x4014c0 2 0.02
0x4014c8 2 0.02
0x4014d0 2 0.02
0x4014d8 2 0.02
0x4014e0 2 0.02
0x4014e8 2 0.02
0x4014f0 2 0.02
0x4014f8 2 0.02
0x401500 2 0.02
0x4015a0 2 0.02
0x4015a8 2 0.02
0x4015b0 2 0.02
0x4015b8 2 0.02
0x4015c0 2 0.02
0x4015c8 2 0.02
0x4015d0 2 0.02
0x4015d8 2 0.02
0x4015e0 2 0.02
0x4015e8 2 0.02
0x4015f0 2 0.02
0x4015f8 2 0.02
0x401600 2 0.02
0x401608 2 0.02
0x401610 2 0.02
0x401618 2 0.02
0x401620 2 0.02
0x4016c0 2 0.02
0x4016c8 2 0.02
0x4016d0 2 0.02
0x4016d8 2 0.02
0x4016e0 2 0.02
0x4016e8 2 0.02
0x4016f0 2 0.02
0x4016f8 2 0.02
0x401700 2 0.02
0x401708 2 0.02
0x401710 2 0.02
0x401718 2 0.02
0x401720 2 0.02
0x401728 2 0.02
0x401730 2 0.02
0x401738 2 0.02
0x401740 2 0.02
0x4017e0 2 0.02
0x4017e8 2 0.02
0x4017f0 2 0.02
0x4017f8 2 0.02
0x401800 2 0.02
0x401808 2 0.02
0x401810 2 0.02
0x401818 2 0.02
0x401820 2 0.02
0x401828 2 0.02
0x401830 2 0.02
0x401838 2 0.02
0x401840 2 0.02
0x401848 2 0.02
0x401850 2 0.02
0x401858 2 0.02
0x401860 2 0.02
0x401900 2 0.02
0x401908 2 0.02
0x401910 2 0.02
0x401918 2 0.02
0x401920 2 0.02
0x401928 2 0.02
0x401930 2 0.02
0x401938 2 0.02
0x401940 2 0.02
0x401948 2 0.02
0x401950 2 0.02
0x401958 2 0.02
0x401960 2 0.02
0x401968 2 0.02
0x401970 2 0.02
0x401978 2 0.02
0x401980 2 0.02
0x401a20 2 0.02
0x401a28 2 0.02
0x401a30 2 0.02
0x401a38 2 0.02
0x401a40 2 0.02
0x401a48 2 0.02
0x401a50 2 0.02
0x401a58 2 0.02
0x401a60 2 0.02
0x401a68 2 0.02
0x401a70 2 0.02
0x401a78 2 0.02
0x401a80 2 0.02
0x401a88 2 0.02
0x401a90 2 0.02
0x401a98 2 0.02
0x401aa0 2 0.02
0x401b40 2 0.02
0x401b48 2 0.02
0x401b50 2 0.02
0x401b58 2 0.02
0x401b60 2 0.02
0x401b68 2 0.02
0x401b70 2 0.02
0x401b78 2 0.02
0x401b80 2 0.02
0x401b88 2 0.02
0x401b90 2 0.02
0x401b98 2 0.02
0x401ba0 2 0.02
0x401ba8 2 0.02
0x401bb0 2 0.02
0x401bb8 2 0.02
0x401bc0 2 0.02
0x401c60 2 0.02
0x401c68 2 0.02
0x401c70 2 0.02
0x401c78 2 0.02
0x401c80 2 0.02
0x401c88 2 0.02
0x401c90 2 0.02
0x401c98 2 0.02
0x401ca0 2 0.02
0x401ca8 2 0.02
0x401cb0 2 0.02
0x401cb8 2 0.02
0x401cc0 2 0.02
0x401cc8 2 0.02
0x401cd0 2 0.02
0x401cd8 2 0.02
0x401ce0 2 0.02
0x401d80 2 0.02
0x401d88 2 0.02
0x401d90 2 0.02
0x401d98 2 0.02
0x401da0 2 0.02
0x401da8 2 0.02
0x401db0 2 0.02
0x401db8 2 0.02
0x401dc0 2 0.02
0x401dc8 2 0.02
0x401dd0 2 0.02
0x401dd8 2 0.02
0x401de0 2 0.02
0x401de8 2 0.02
0x401df0 2 0.02
0x401df8 2 0.02
0x401e00 2 0.02
0x401ea0 2 0.02
0x401ea8 2 0.02
0x401eb0 2 0.02
0x401eb8 2 0.02
0x401ec0 2 0.02
0x401ec8 2 0.02
0x401ed0 2 0.02
0x401ed8 2 0.02
0x401ee0 2 0.02
0x401ee8 2 0.02
0x401ef0 2 0.02
0x401ef8 2 0.02
0x401f00 2 0.02
0x401f08 2 0.02
0x401f10 2 0.02
0x401f18 2 0.02
0x401f20 2 0.02
0x401fc0 2 0.02
0x401fc8 2 0.02
0x401fd0 2 0.02
0x401fd8 2 0.02
0x401fe0 2 0.02
0x401fe8 2 0.02
0x401ff0 2 0.02
0x401ff8 2 0.02
0x402000 2 0.02
0x402008 2 0.02
0x402010 2 0.02
0x402018 2 0.02
0x402020 2 0.02
0x402028 2 0.02
0x402030 2 0.02
0x402038 2 0.02
0x402040 2 0.02
0x4020e0 2 0.02
0x4020e8 2 0.02
0x4020f0 2 0.02
0x4020f8 2 0.02
0x402100 2 0.02
0x402108 2 0.02
0x402110 2 0.02
0x402118 2 0.02
0x402120 2 0.02
0x402128 2 0.02
0x402130 2 0.02
0x402138 2 0.02
0x402140 2 0.02
0x402148 2 0.02
0x402150 2 0.02
0x402158 2 0.02
0x402160 2 0.02
0x402200 2 0.02
0x402208 2 0.02
0x402210 2 0.02
0x402218 2 0.02
0x402220 2 0.02
0x402228 2 0.02
0x402230 2 0.02
0x402238 2 0.02
0x402240 2 0.02
0x402248 2 0.02
0x402250 2 0.02
0x402258 2 0.02
0x402260 2 0.02
0x402268 2 0.02
0x402270 2 0.02
0x402278 2 0.02
0x402280 2 0.02
0x402320 2 0.02
0x402328 2 0.02
0x402330 2 0.02
0x402338 2 0.02
0x402340 2 0.02
0x402348 2 0.02
0x402350 2 0.02
0x402358 2 0.02
0x402360 2 0.02
0x402368 2 0.02
0x402370 2 0.02
0x402378 2 0.02
0x402380 2 0.02
0x402388 2 0.02
0x402390 2 0.02
0x402398 2 0.02
0x4023a0 2 0.02
0x402440 2 0.02
0x402448 2 0.02
0x402450 2 0.02
0x402458 2 0.02
0x402460 2 0.02
0x402468 2 0.02
0x402470 2 0.02
0x402478 2 0.02
0x402480 2 0.02
0x402488 2 0.02
0x402490 2 0.02
0x402498 2 0.02
0x4024a0 2 0.02
0x4024a8 2 0.02
0x4024b0 2 0.02
0x4024b8 2 0.02
0x4024c0 2 0.02
0x402570 2 0.02
0x402578 2 0.02
0x402580 2 0.02
0x402588 2 0.02
0x402590 2 0.02
0x402598 2 0.02
0x4025a0 2 0.02
0x4025a8 2 0.02
0x4025b0 2 0.02
0x4025b8 2 0.02
0x4025c0 2 0.02
0x4025c8 2 0.02
0x4025d0 2 0.02
0x4025d8 2 0.02
0x4025e0 2 0.02
0x4025e8 2 0.02
0x4025f0 2 0.02
0x4026a0 2 0.02
0x4026a8 2 0.02
0x4026b0 2 0.02
0x4026b8 2 0.02
0x4026c0 2 0.02
0x4026c8 2 0.02
0x4026d0 2 0.02
0x4026d8 2 0.02
0x4026e0 2 0.02
0x4026e8 2 0.02
0x4026f0 2 0.02
0x4026f8 2 0.02
0x402700 2 0.02
0x402708 2 0.02
0x402710 2 0.02
0x402718 2 0.02
0x402720 2 0.02
0x4027d0 2 0.02
0x4027d8 2 0.02
0x4027e0 2 0.02
0x4027e8 2 0.02
0x4027f0 2 0.02
0x4027f8 2 0.02
0x402800 2 0.02
0x402808 2 0.02
0x402810 2 0.02
0x402818 2 0.02
0x402820 2 0.02
0x402828 2 0.02
0x402830 2 0.02
0x402838 2 0.02
0x402840 2 0.02
0x402848 2 0.02
0x402850 2 0.02
0x402900 2 0.02
0x402908 2 0.02
0x402910 2 0.02
0x402918 2 0.02
0x402920 2 0.02
0x402928 2 0.02
0x402930 2 0.02
0x402938 2 0.02
0x402940 2 0.02
0x402948 2 0.02
0x402950 2 0.02
0x402958 2 0.02
0x402960 2 0.02
0x402968 2 0.02
0x402970 2 0.02
0x402978 2 0.02
0x402980 2 0.02
0x402a30 2 0.02
0x402a38 2 0.02
0x402a40 2 0.02
0x402a48 2 0.02
0x402a50 2 0.02
0x402a58 2 0.02
0x402a60 2 0.02
0x402a68 2 0.02
0x402a70 2 0.02
0x402a78 2 0.02
0x402a80 2 0.02
0x402a88 2 0.02
0x402a90 2 0.02
0x402a98 2 0.02
0x402aa0 2 0.02
0x402aa8 2 0.02
0x402ab0 2 0.02
0x402b60 2 0.02
0x402b68 2 0.02
0x402b70 2 0.02
0x402b78 2 0.02
0x402b80 2 0.02
0x402b88 2 0.02
0x402b90 2 0.02
0x402b98 2 0.02
0x402ba0 2 0.02
0x402ba8 2 0.02
0x402bb0 2 0.02
0x402bb8 2 0.02
0x402bc0 2 0.02
0x402bc8 2 0.02
0x402bd0 2 0.02
0x402bd8 2 0.02
0x402be0 2 0.02
0x402c90 2 0.02
0x402c98 2 0.02
0x402ca0 2 0.02
0x402ca8 2 0.02
0x402cb0 2 0.02
0x402cb8 2 0.02
0x402cc0 2 0.02
0x402cc8 2 0.02
0x402cd0 2 0.02
0x402cd8 2 0.02
0x402ce0 2 0.02
0x402ce8 2 0.02
0x402cf0 2 0.02
0x402cf8 2 0.02
0x402d00 2 0.02
0x402d08 2 0.02
0x402d10 2 0.02
0x402dc0 2 0.02
0x402dc8 2 0.02
0x402dd0 2 0.02
0x402dd8 2 0.02
0x402de0 2 0.02
0x402de8 2 0.02
0x402df0 2 0.02
0x402df8 2 0.02
0x402e00 2 0.02
0x402e08 2 0.02
0x402e10 2 0.02
0x402e18 2 0.02
0x402e20 2 0.02
0x402e28 2 0.02
0x402e30 2 0.02
0x402e38 2 0.02
0x402e40 2 0.02
0x402ef0 2 0.02
0x402ef8 2 0.02
0x402f00 2 0.02
0x402f08 2 0.02
0x402f10 2 0.02
0x402f18 2 0.02
0x402f20 2 0.02
0x402f28 2 0.02
0x402f30 2 0.02
0x402f38 2 0.02
0x402f40 2 0.02
0x402f48 2 0.02
0x402f50 2 0.02
0x402f58 2 0.02
0x402f60 2 0.02
0x402f68 2 0.02
0x402f70 2 0.02
0x403020 2 0.02
0x403028 2 0.02
0x403030 2 0.02
0x403038 2 0.02
0x403040 2 0.02
0x403048 2 0.02
0x403050 2 0.02
0x403058 2 0.02
0x403060 2 0.02
0x403068 2 0.02
0x403070 2 0.02
0x403078 2 0.02
0x403080 2 0.02
0x403088 2 0.02
0x403090 2 0.02
0x403098 2 0.02
0x4030a0 2 0.02
0x403150 2 0.02
0x403158 2 0.02
0x403160 2 0.02
0x403168 2 0.02
0x403170 2 0.02
0x403178 2 0.02
0x403180 2 0.02
0x403188 2 0.02
0x403190 2 0.02
0x403198 2 0.02
0x4031a0 2 0.02
0x4031a8 2 0.02
0x4031b0 2 0.02
0x4031b8 2 0.02
0x4031c0 2 0.02
0x4031c8 2 0.02
0x4031d0 2 0.02
0x403280 2 0.02
0x403288 2 0.02
0x403290 2 0.02
0x403298 2 0.02
0x4032a0 2 0.02
0x4032a8 2 0.02
0x4032b0 2 0.02
0x4032b8 2 0.02
0x4032c0 2 0.02
0x4032c8 2 0.02
0x4032d0 2 0.02
0x4032d8 2 0.02
0x4032e0 2 0.02
0x4032e8 2 0.02
0x4032f0 2 0.02
0x4032f8 2 0.02
0x403300 2 0.02
0x4033b0 2 0.02
0x4033b8 2 0.02
0x4033c0 2 0.02
0x4033c8 2 0.02
0x4033d0 2 0.02
0x4033d8 2 0.02
0x4033e0 2 0.02
0x4033e8 2 0.02
0x4033f0 2 0.02
0x4033f8 2 0.02
0x403400 2 0.02
0x403408 2 0.02
0x403410 2 0.02
0x403418 2 0.02
0x403420 2 0.02
0x403428 2 0.02
0x403430 2 0.02
0x4034e0 2 0.02
0x4034e8 2 0.02
0x4034f0 2 0.02
0x4034f8 2 0.02
0x403500 2 0.02
0x403508 2 0.02
0x403510 2 0.02
0x403518 2 0.02
0x403520 2 0.02
0x403528 2 0.02
0x403530 2 0.02
0x403538 2 0.02
0x403540 2 0.02
0x403548 2 0.02
0x403550 2 0.02
0x403558 2 0.02
0x403560 2 0.02
0x403610 2 0.02
0x403618 2 0.02
0x403620 2 0.02
0x403628 2 0.02
0x403630 2 0.02
0x403638 2 0.02
0x403640 2 0.02
0x403648 2 0.02
0x403650 2 0.02
0x403658 2 0.02
0x403660 2 0.02
0x403668 2 0.02
0x403670 2 0.02
0x403678 2 0.02
0x403680 2 0.02
0x403688 2 0.02
0x403690 2 0.02
0x403740 2 0.02
0x403748 2 0.02
0x403750 2 0.02
0x403758 2 0.02
0x403760 2 0.02
0x403768 2 0.02
0x403770 2 0.02
0x403778 2 0.02
0x403780 2 0.02
0x403788 2 0.02
0x403790 2 0.02
0x403798 2 0.02
0x4037a0 2 0.02
0x4037a8 2 0.02
0x4037b0 2 0.02
0x4037b8 2 0.02
0x4037c0 2 0.02
0x403870 2 0.02
0x403878 2 0.02
0x403880 2 0.02
0x403888 2 0.02
0x403890 2 0.02
0x403898 2 0.02
0x4038a0 2 0.02
0x4038a8 2 0.02
0x4038b0 2 0.02
0x4038b8 2 0.02
0x4038c0 2 0.02
0x4038c8 2 0.02
0x4038d0 2 0.02
0x4038d8 2 0.02
0x4038e0 2 0.02
0x4038e8 2 0.02
0x4038f0 2 0.02
0x4039a0 2 0.02
0x4039a8 2 0.02
0x4039b0 2 0.02
0x4039b8 2 0.02
0x4039c0 2 0.02
0x4039c8 2 0.02
0x4039d0 2 0.02
0x4039d8 2 0.02
0x4039e0 2 0.02
0x4039e8 2 0.02
0x4039f0 2 0.02
0x4039f8 2 0.02
0x403a00 2 0.02
0x403a08 2 0.02
0x403a10 2 0.02
0x403a18 2 0.02
0x403a20 2 0.02
0x403ad0 2 0.02
0x403ad8 2 0.02
0x403ae0 2 0.02
0x403ae8 2 0.02
0x403af0 2 0.02
0x403af8 2 0.02
0x403b00 2 0.02
0x403b08 2 0.02
0x403b10 2 0.02
0x403b18 2 0.02
0x403b20 2 0.02
0x403b28 2 0.02
0x403b30 2 0.02
0x403b38 2 0.02
0x403b40 2 0.02
0x403b48 2 0.02
0x403b50 2 0.02
0x403c00 2 0.02
0x403c08 2 0.02
0x403c10 2 0.02
0x403c18 2 0.02
0x403c20 2 0.02
0x403c28 2 0.02
0x403c30 2 0.02
0x403c38 2 0.02
0x403c40 2 0.02
0x403c48 2 0.02
0x403c50 2 0.02
0x403c58 2 0.02
0x403c60 2 0.02
0x403c68 2 0.02
0x403c70 2 0.02
0x403c78 2 0.02
0x403c80 2 0.02
0x403d30 2 0.02
0x403d38 2 0.02
0x403d40 2 0.02
0x403d48 2 0.02
0x403d50 2 0.02
0x403d58 2 0.02
0x403d60 2 0.02
0x403d68 2 0.02
0x403d70 2 0.02
0x403d78 2 0.02
0x403d80 2 0.02
0x403d88 2 0.02
0x403d90 2 0.02
0x403d98 2 0.02
0x403da0 2 0.02
0x403da8 2 0.02
0x403db0 2 0.02
0x403e60 2 0.02
0x403e68 2 0.02
0x403e70 2 0.02
0x403e78 2 0.02
0x403e80 2 0.02
0x403e88 2 0.02
0x403e90 2 0.02
0x403e98 2 0.02
0x403ea0 2 0.02
0x403ea8 2 0.02
0x403eb0 2 0.02
0x403eb8 2 0.02
0x403ec0 2 0.02
0x403ec8 2 0.02
0x403ed0 2 0.02
0x403ed8 2 0.02
0x403ee0 2 0.02
0x403f90 2 0.02
0x403f98 2 0.02
0x403fa0 2 0.02
0x403fa8 2 0.02
0x403fb0 2 0.02
0x403fb8 2 0.02
0x403fc0 2 0.02
0x403fc8 2 0.02
0x403fd0 2 0.02
0x403fd8 2 0.02
0x403fe0 2 0.02
0x403fe8 2 0.02
0x403ff0 2 0.02
0x403ff8 2 0.02
0x404000 2 0.02
0x404008 2 0.02
0x404010 2 0.02
0x4040b0 2 0.02
0x4040b8 2 0.02
0x4040c0 2 0.02
0x4040c8 2 0.02
0x4040d0 2 0.02
0x4040d8 2 0.02
0x4040e0 2 0.02
0x4040e8 2 0.02
0x4040f0 2 0.02
0x4040f8 2 0.02
0x404100 2 0.02
0x404108 2 0.02
0x404110 2 0.02
0x404118 2 0.02
0x404120 2 0.02
0x404128 2 0.02
0x404130 2 0.02
0x4041e0 2 0.02
0x4041e8 2 0.02
0x4041f0 2 0.02
0x4041f8 2 0.02
0x404200 2 0.02
0x404208 2 0.02
0x404210 2 0.02
0x404218 2 0.02
0x404220 2 0.02
0x404228 2 0.02
0x404230 2 0.02
0x404238 2 0.02
0x404240 2 0.02
0x404248 2 0.02
0x404250 2 0.02
0x404258 2 0.02
0x404260 2 0.02
0x404300 2 0.02
0x404308 2 0.02
0x404310 2 0.02
0x404318 2 0.02
0x404320 2 0.02
0x404328 2 0.02
0x404330 2 0.02
0x404338 2 0.02
0x404340 2 0.02
0x404348 2 0.02
0x404350 2 0.02
0x404358 2 0.02
0x404360 2 0.02
0x404368 2 0.02
0x404370 2 0.02
0x404378 2 0.02
0x404380 2 0.02
0x404430 2 0.02
0x404438 2 0.02
0x404440 2 0.02
0x404448 2 0.02
0x404450 2 0.02
0x404458 2 0.02
0x404460 2 0.02
0x404468 2 0.02
0x404470 2 0.02
0x404478 2 0.02
0x404480 2 0.02
0x404488 2 0.02
0x404490 2 0.02
0x404498 2 0.02
0x4044a0 2 0.02
0x4044a8 2 0.02
0x4044b0 2 0.02
0x404550 2 0.02
0x404558 2 0.02
0x404560 2 0.02
0x404568 2 0.02
0x404570 2 0.02
0x404578 2 0.02
0x404580 2 0.02
0x404588 2 0.02
0x404590 2 0.02
0x404598 2 0.02
0x4045a0 2 0.02
0x4045a8 2 0.02
0x4045b0 2 0.02
0x4045b8 2 0.02
0x4045c0 2 0.02
0x4045c8 2 0.02
0x4045d0 2 0.02
0x404680 2 0.02
0x404688 2 0.02
0x404690 2 0.02
0x404698 2 0.02
0x4046a0 2 0.02
0x4046a8 2 0.02
0x4046b0 2 0.02
0x4046b8 2 0.02
0x4046c0 2 0.02
0x4046c8 2 0.02
0x4046d0 2 0.02
0x4046d8 2 0.02
0x4046e0 2 0.02
0x4046e8 2 0.02
0x4046f0 2 0.02
0x4046f8 2 0.02
0x404700 2 0.02
0x4047a0 2 0.02
0x4047a8 2 0.02
0x4047b0 2 0.02
0x4047b8 2 0.02
0x4047c0 2 0.02
0x4047c8 2 0.02
0x4047d0 2 0.02
0x4047d8 2 0.02
0x4047e0 2 0.02
0x4047e8 2 0.02
0x4047f0 2 0.02
0x4047f8 2 0.02
0x404800 2 0.02
0x404808 2 0.02
0x404810 2 0.02
0x404818 2 0.02
0x404820 2 0.02
0x4048d0 2 0.02
0x4048d8 2 0.02
0x4048e0 2 0.02
0x4048e8 2 0.02
0x4048f0 2 0.02
0x4048f8 2 0.02
0x404900 2 0.02
0x404908 2 0.02
0x404910 2 0.02
0x404918 2 0.02
0x404920 2 0.02
0x404928 2 0.02
0x404930 2 0.02
0x404938 2 0.02
0x404940 2 0.02
0x404948 2 0.02
0x404950 2 0.02
0x404a00 2 0.02
0x404a08 2 0.02
0x404a10 2 0.02
0x404a18 2 0.02
0x404a20 2 0.02
0x404a28 2 0.02
0x404a30 2 0.02
0x404a38 2 0.02
0x404a40 2 0.02
0x404a48 2 0.02
0x404a50 2 0.02
0x404a58 2 0.02
0x404a60 2 0.02
0x404a68 2 0.02
0x404a70 2 0.02
0x404a78 2 0.02
0x404a80 2 0.02
0x404b30 2 0.02
0x404b38 2 0.02
0x404b40 2 0.02
0x404b48 2 0.02
0x404b50 2 0.02
0x404b58 2 0.02
0x404b60 2 0.02
0x404b68 2 0.02
0x404b70 2 0.02
0x404b78 2 0.02
0x404b80 2 0.02
0x404b88 2 0.02
0x404b90 2 0.02
0x404b98 2 0.02
0x404ba0 2 0.02
0x404ba8 2 0.02
0x404bb0 2 0.02
0x404c50 2 0.02
0x404c58 2 0.02
0x404c60 2 0.02
0x404c68 2 0.02
0x404c70 2 0.02
0x404c78 2 0.02
0x404c80 2 0.02
0x404c88 2 0.02
0x404c90 2 0.02
0x404c98 2 0.02
0x404ca0 2 0.02
0x404ca8 2 0.02
0x404cb0 2 0.02
0x404cb8 2 0.02
0x404cc0 2 0.02
0x404cc8 2 0.02
0x404cd0 2 0.02
0x404d80 2 0.02
0x404d88 2 0.02
0x404d90 2 0.02
0x404d98 2 0.02
0x404da0 2 0.02
0x404da8 2 0.02
0x404db0 2 0.02
0x404db8 2 0.02
0x404dc0 2 0.02
0x404dc8 2 0.02
0x404dd0 2 0.02
0x404dd8 2 0.02
0x404de0 2 0.02
0x404de8 2 0.02
0x404df0 2 0.02
0x404df8 2 0.02
0x404e00 2 0.02
0x404ea0 2 0.02
0x404ea8 2 0.02
0x404eb0 2 0.02
0x404eb8 2 0.02
0x404ec0 2 0.02
0x404ec8 2 0.02
0x404ed0 2 0.02
0x404ed8 2 0.02
0x404ee0 2 0.02
0x404ee8 2 0.02
0x404ef0 2 0.02
0x404ef8 2 0.02
0x404f00 2 0.02
0x404f08 2 0.02
0x404f10 2 0.02
0x404f18 2 0.02
0x404f20 2 0.02
0x404fd0 2 0.02
0x404fd8 2 0.02
0x404fe0 2 0.02
0x404fe8 2 0.02
0x404ff0 2 0.02
0x404ff8 2 0.02
0x405000 2 0.02
0x405008 2 0.02
0x405010 2 0.02
0x405018 2 0.02
0x405020 2 0.02
0x405028 2 0.02
0x405030 2 0.02
0x405038 2 0.02
0x405040 2 0.02
0x405048 2 0.02
0x405050 2 0.02
0x405100 2 0.02
0x405108 2 0.02
0x405110 2 0.02
0x405118 2 0.02
0x405120 2 0.02
0x405128 2 0.02
0x405130 2 0.02
0x405138 2 0.02
0x405140 2 0.02
0x405148 2 0.02
0x405150 2 0.02
0x405158 2 0.02
0x405160 2 0.02
0x405168 2 0.02
0x405170 2 0.02
0x405178 2 0.02
0x405180 2 0.02
0x405230 2 0.02
0x405238 2 0.02
0x405240 2 0.02
0x405248 2 0.02
0x405250 2 0.02
0x405258 2 0.02
0x405260 2 0.02
0x405268 2 0.02
0x405270 2 0.02
0x405278 2 0.02
0x405280 2 0.02
0x405288 2 0.02
0x405290 2 0.02
0x405298 2 0.02
0x4052a0 2 0.02
0x4052a8 2 0.02
0x4052b0 2 0.02
0x405360 2 0.02
0x405368 2 0.02
0x405370 2 0.02
0x405378 2 0.02
0x405380 2 0.02
0x405388 2 0.02
0x405390 2 0.02
0x405398 2 0.02
0x4053a0 2 0.02
0x4053a8 2 0.02
0x4053b0 2 0.02
0x4053b8 2 0.02
0x4053c0 2 0.02
0x4053c8 2 0.02
0x4053d0 2 0.02
0x4053d8 2 0.02
0x4053e0 2 0.02
0x405490 2 0.02
0x405498 2 0.02
0x4054a0 2 0.02
0x4054a8 2 0.02
0x4054b0 2 0.02
0x4054b8 2 0.02
0x4054c0 2 0.02
0x4054c8 2 0.02
0x4054d0 2 0.02
0x4054d8 2 0.02
0x4054e0 2 0.02
0x4054e8 2 0.02
0x4054f0 2 0.02
0x4054f8 2 0.02
0x405500 2 0.02
0x405508 2 0.02
0x405510 2 0.02
0x4055b0 2 0.02
0x4055b8 2 0.02
0x4055c0 2 0.02
0x4055c8 2 0.02
0x4055d0 2 0.02
0x4055d8 2 0.02
0x4055e0 2 0.02
0x4055e8 2 0.02
0x4055f0 2 0.02
0x4055f8 2 0.02
0x405600 2 0.02
0x405608 2 0.02
0x405610 2 0.02
0x405618 2 0.02
0x405620 2 0.02
0x405628 2 0.02
0x405630 2 0.02
0x4056e0 2 0.02
0x4056e8 2 0.02
0x4056f0 2 0.02
0x4056f8 2 0.02
0x405700 2 0.02
0x405708 2 0.02
0x405710 2 0.02
0x405718 2 0.02
0x405720 2 0.02
0x405728 2 0.02
0x405730 2 0.02
0x405738 2 0.02
0x405740 2 0.02
0x405748 2 0.02
0x405750 2 0.02
0x405758 2 0.02
0x405760 2 0.02
0x405800 2 0.02
0x405808 2 0.02
0x405810 2 0.02
0x405818 2 0.02
0x405820 2 0.02
0x405828 2 0.02
0x405830 2 0.02
0x405838 2 0.02
0x405840 2 0.02
0x405848 2 0.02
0x405850 2 0.02
0x405858 2 0.02
0x405860 2 0.02
0x405868 2 0.02
0x405870 2 0.02
0x405878 2 0.02
0x405880 2 0.02
0x405930 2 0.02
0x405938 2 0.02
0x405940 2 0.02
0x405948 2 0.02
0x405950 2 0.02
0x405958 2 0.02
0x405960 2 0.02
0x405968 2 0.02
0x405970 2 0.02
0x405978 2 0.02
0x405980 2 0.02
0x405988 2 0.02
0x405990 2 0.02
0x405998 2 0.02
0x4059a0 2 0.02
0x4059a8 2 0.02
0x4059b0 2 0.02
0x405a50 2 0.02
0x405a58 2 0.02
0x405a60 2 0.02
0x405a68 2 0.02
0x405a70 2 0.02
0x405a78 2 0.02
0x405a80 2 0.02
0x405a88 2 0.02
0x405a90 2 0.02
0x405a98 2 0.02
0x405aa0 2 0.02
0x405aa8 2 0.02
0x405ab0 2 0.02
0x405ab8 2 0.02
0x405ac0 2 0.02
0x405ac8 2 0.02
0x405ad0 2 0.02
0x405b80 2 0.02
0x405b88 2 0.02
0x405b90 2 0.02
0x405b98 2 0.02
0x405ba0 2 0.02
0x405ba8 2 0.02
0x405bb0 2 0.02
0x405bb8 2 0.02
0x405bc0 2 0.02
0x405bc8 2 0.02
0x405bd0 2 0.02
0x405bd8 2 0.02
0x405be0 2 0.02
0x405be8 2 0.02
0x405bf0 2 0.02
0x405bf8 2 0.02
0x405c00 2 0.02
0x405ca0 2 0.02
0x405ca8 2 0.02
0x405cb0 2 0.02
0x405cb8 2 0.02
0x405cc0 2 0.02
0x405cc8 2 0.02
0x405cd0 2 0.02
0x405cd8 2 0.02
0x405ce0 2 0.02
0x405ce8 2 0.02
0x405cf0 2 0.02
0x405cf8 2 0.02
0x405d00 2 0.02
0x405d08 2 0.02
0x405d10 2 0.02
0x405d18 2 0.02
0x405d20 2 0.02
0x405dd0 2 0.02
0x405dd8 2 0.02
0x405de0 2 0.02
0x405de8 2 0.02
0x405df0 2 0.02
0x405df8 2 0.02
0x405e00 2 0.02
0x405e08 2 0.02
0x405e10 2 0.02
0x405e18 2 0.02
0x405e20 2 0.02
0x405e28 2 0.02
0x405e30 2 0.02
0x405e38 2 0.02
0x405e40 2 0.02
0x405e48 2 0.02
0x405e50 2 0.02
0x405f00 2 0.02
0x405f08 2 0.02
0x405f10 2 0.02
0x405f18 2 0.02
0x405f20 2 0.02
0x405f28 2 0.02
0x405f30 2 0.02
0x405f38 2 0.02
0x405f40 2 0.02
0x405f48 2 0.02
0x405f50 2 0.02
0x405f58 2 0.02
0x405f60 2 0.02
0x405f68 2 0.02
0x405f70 2 0.02
0x405f78 2 0.02
0x405f80 2 0.02
0x406030 2 0.02
0x406038 2 0.02
0x406040 2 0.02
0x406048 2 0.02
0x406050 2 0.02
0x406058 2 0.02
0x406060 2 0.02
0x406068 2 0.02
0x406070 2 0.02
0x406078 2 0.02
0x406080 2 0.02
0x406088 2 0.02
0x406090 2 0.02
0x406098 2 0.02
0x4060a0 2 0.02
0x4060a8 2 0.02
0x4060b0 2 0.02
0x406150 2 0.02
0x406158 2 0.02
0x406160 2 0.02
0x406168 2 0.02
0x406170 2 0.02
0x406178 2 0.02
0x406180 2 0.02
0x406188 2 0.02
0x406190 2 0.02
0x406198 2 0.02
0x4061a0 2 0.02
0x4061a8 2 0.02
0x4061b0 2 0.02
0x4061b8 2 0.02
0x4061c0 2 0.02
0x4061c8 2 0.02
0x4061d0 2 0.02
0x406280 2 0.02
0x406288 2 0.02
0x406290 2 0.02
0x406298 2 0.02
0x4062a0 2 0.02
0x4062a8 2 0.02
0x4062b0 2 0.02
0x4062b8 2 0.02
0x4062c0 2 0.02
0x4062c8 2 0.02
0x4062d0 2 0.02
0x4062d8 2 0.02
0x4062e0 2 0.02
0x4062e8 2 0.02
0x4062f0 2 0.02
0x4062f8 2 0.02
0x406300 2 0.02
0x4063a0 2 0.02
0x4063a8 2 0.02
0x4063b0 2 0.02
0x4063b8 2 0.02
0x4063c0 2 0.02
0x4063c8 2 0.02
0x4063d0 2 0.02
0x4063d8 2 0.02
0x4063e0 2 0.02
0x4063e8 2 0.02
0x4063f0 2 0.02
0x4063f8 2 0.02
0x406400 2 0.02
0x406408 2 0.02
0x406410 2 0.02
0x406418 2 0.02
0x406420 2 0.02
0x4064d0 2 0.02
0x4064d8 2 0.02
0x4064e0 2 0.02
0x4064e8 2 0.02
0x4064f0 2 0.02
0x4064f8 2 0.02
0x406500 2 0.02
0x406508 2 0.02
0x406510 2 0.02
0x406518 2 0.02
0x406520 2 0.02
0x406528 2 0.02
0x406530 2 0.02
0x406538 2 0.02
0x406540 2 0.02
0x406548 2 0.02
0x406550 2 0.02
0x406600 2 0.02
0x406608 2 0.02
0x406610 2 0.02
0x406618 2 0.02
0x406620 2 0.02
0x406628 2 0.02
0x406630 2 0.02
0x406638 2 0.02
0x406640 2 0.02
0x406648 2 0.02
0x406650 2 0.02
0x406658 2 0.02
0x406660 2 0.02
0x406668 2 0.02
0x406670 2 0.02
0x406678 2 0.02
0x406680 2 0.02
0x406730 2 0.02
0x406738 2 0.02
0x406740 2 0.02
0x406748 2 0.02
0x406750 2 0.02
0x406758 2 0.02
0x406760 2 0.02
0x406768 2 0.02
0x406770 2 0.02
0x406778 2 0.02
0x406780 2 0.02
0x406788 2 0.02
0x406790 2 0.02
0x406798 2 0.02
0x4067a0 2 0.02
0x4067a8 2 0.02
0x4067b0 2 0.02
0x406860 2 0.02
0x406868 2 0.02
0x406870 2 0.02
0x406878 2 0.02
0x406880 2 0.02
0x406888 2 0.02
0x406890 2 0.02
0x406898 2 0.02
0x4068a0 2 0.02
0x4068a8 2 0.02
0x4068b0 2 0.02
0x4068b8 2 0.02
0x4068c0 2 0.02
0x4068c8 2 0.02
0x4068d0 2 0.02
0x4068d8 2 0.02
0x4068e0 2 0.02
0x406990 2 0.02
0x406998 2 0.02
0x4069a0 2 0.02
0x4069a8 2 0.02
0x4069b0 2 0.02
0x4069b8 2 0.02
0x4069c0 2 0.02
0x4069c8 2 0.02
0x4069d0 2 0.02
0x4069d8 2 0.02
0x4069e0 2 0.02
0x4069e8 2 0.02
0x4069f0 2 0.02
0x4069f8 2 0.02
0x406a00 2 0.02
0x406a08 2 0.02
0x406a10 2 0.02
0x406ab0 2 0.02
0x406ab8 2 0.02
0x406ac0 2 0.02
0x406ac8 2 0.02
0x406ad0 2 0.02
0x406ad8 2 0.02
0x406ae0 2 0.02
0x406ae8 2 0.02
0x406af0 2 0.02
0x406af8 2 0.02
0x406b00 2 0.02
0x406b08 2 0.02
0x406b10 2 0.02
0x406b18 2 0.02
0x406b20 2 0.02
0x406b28 2 0.02
0x406b30 2 0.02
0x406be0 2 0.02
0x406be8 2 0.02
0x406bf0 2 0.02
0x406bf8 2 0.02
0x406c00 2 0.02
0x406c08 2 0.02
0x406c10 2 0.02
0x406c18 2 0.02
0x406c20 2 0.02
0x406c28 2 0.02
0x406c30 2 0.02
0x406c38 2 0.02
0x406c40 2 0.02
0x406c48 2 0.02
0x406c50 2 0.02
0x406c58 2 0.02
0x406c60 2 0.02
0x406d00 2 0.02
0x406d08 2 0.02
0x406d10 2 0.02
0x406d18 2 0.02
0x406d20 2 0.02
0x406d28 2 0.02
0x406d30 2 0.02
0x406d38 2 0.02
0x406d40 2 0.02
0x406d48 2 0.02
0x406d50 2 0.02
0x406d58 2 0.02
0x406d60 2 0.02
0x406d68 2 0.02
0x406d70 2 0.02
0x406d78 2 0.02
0x406d80 2 0.02
0x406e30 2 0.02
0x406e38 2 0.02
0x406e40 2 0.02
0x406e48 2 0.02
0x406e50 2 0.02
0x406e58 2 0.02
0x406e60 2 0.02
0x406e68 2 0.02
0x406e70 2 0.02
0x406e78 2 0.02
0x406e80 2 0.02
0x406e88 2 0.02
0x406e90 2 0.02
0x406e98 2 0.02
0x406ea0 2 0.02
0x406ea8 2 0.02
0x406eb0 2 0.02
0x406f50 2 0.02
0x406f58 2 0.02
0x406f60 2 0.02
0x406f68 2 0.02
0x406f70 2 0.02
0x406f78 2 0.02
0x406f80 2 0.02
0x406f88 2 0.02
0x406f90 2 0.02
0x406f98 2 0.02
0x406fa0 2 0.02
0x406fa8 2 0.02
0x406fb0 2 0.02
0x406fb8 2 0.02
0x406fc0 2 0.02
0x406fc8 2 0.02
0x406fd0 2 0.02
0x407080 2 0.02
0x407088 2 0.02
0x407090 2 0.02
0x407098 2 0.02
0x4070a0 2 0.02
0x4070a8 2 0.02
0x4070b0 2 0.02
0x4070b8 2 0.02
0x4070c0 2 0.02
0x4070c8 2 0.02
0x4070d0 2 0.02
0x4070d8 2 0.02
0x4070e0 2 0.02
0x4070e8 2 0.02
0x4070f0 2 0.02
0x4070f8 2 0.02
0x407100 2 0.02
0x4071a0 2 0.02
0x4071a8 2 0.02
0x4071b0 2 0.02
0x4071b8 2 0.02
0x4071c0 2 0.02
0x4071c8 2 0.02
0x4071d0 2 0.02
0x4071d8 2 0.02
0x4071e0 2 0.02
0x4071e8 2 0.02
0x4071f0 2 0.02
0x4071f8 2 0.02
0x407200 2 0.02
0x407208 2 0.02
0x407210 2 0.02
0x407218 2 0.02
0x407220 2 0.02
0x4072d0 2 0.02
0x4072d8 2 0.02
0x4072e0 2 0.02
0x4072e8 2 0.02
0x4072f0 2 0.02
0x4072f8 2 0.02
0x407300 2 0.02
0x407308 2 0.02
0x407310 2 0.02
0x407318 2 0.02
0x407320 2 0.02
0x407328 2 0.02
0x407330 2 0.02
0x407338 2 0.02
0x407340 2 0.02
0x407348 2 0.02
0x407350 2 0.02
0x407400 2 0.02
0x407408 2 0.02
0x407410 2 0.02
0x407418 2 0.02
0x407420 2 0.02
0x407428 2 0.02
0x407430 2 0.02
0x407438 2 0.02
0x407440 2 0.02
0x407448 2 0.02
0x407450 2 0.02
0x407458 2 0.02
0x407460 2 0.02
0x407468 2 0.02
0x407470 2 0.02
0x407478 2 0.02
0x407480 2 0.02
0x407530 2 0.02
0x407538 2 0.02
0x407540 2 0.02
0x407548 2 0.02
0x407550 2 0.02
0x407558 2 0.02
0x407560 2 0.02
0x407568 2 0.02
0x407570 2 0.02
0x407578 2 0.02
0x407580 2 0.02
0x407588 2 0.02
0x407590 2 0.02
0x407598 2 0.02
0x4075a0 2 0.02
0x4075a8 2 0.02
0x4075b0 2 0.02
0x407650 2 0.02
0x407658 2 0.02
0x407660 2 0.02
0x407668 2 0.02
0x407670 2 0.02
0x407678 2 0.02
0x407680 2 0.02
0x407688 2 0.02
0x407690 2 0.02
0x407698 2 0.02
0x4076a0 2 0.02
0x4076a8 2 0.02
0x4076b0 2 0.02
0x4076b8 2 0.02
0x4076c0 2 0.02
0x4076c8 2 0.02
0x4076d0 2 0.02
0x407780 2 0.02
0x407788 2 0.02
0x407790 2 0.02
0x407798 2 0.02
0x4077a0 2 0.02
0x4077a8 2 0.02
0x4077b0 2 0.02
0x4077b8 2 0.02
0x4077c0 2 0.02
0x4077c8 2 0.02
0x4077d0 2 0.02
0x4077d8 2 0.02
0x4077e0 2 0.02
0x4077e8 2 0.02
0x4077f0 2 0.02
0x4077f8 2 0.02
0x407800 2 0.02
0x4078a0 2 0.02
0x4078a8 2 0.02
0x4078b0 2 0.02
0x4078b8 2 0.02
0x4078c0 2 0.02
0x4078c8 2 0.02
0x4078d0 2 0.02
0x4078d8 2 0.02
0x4078e0 2 0.02
0x4078e8 2 0.02
0x4078f0 2 0.02
0x4078f8 2 0.02
0x407900 2 0.02
0x407908 2 0.02
0x407910 2 0.02
0x407918 2 0.02
0x407920 2 0.02
0x4079d0 2 0.02
0x4079d8 2 0.02
0x4079e0 2 0.02
0x4079e8 2 0.02
0x4079f0 2 0.02
0x4079f8 2 0.02
0x407a00 2 0.02
0x407a08 2 0.02
0x407a10 2 0.02
0x407a18 2 0.02
0x407a20 2 0.02
0x407a28 2 0.02
0x407a30 2 0.02
0x407a38 2 0.02
0x407a40 2 0.02
0x407a48 2 0.02
0x407a50 2 0.02
0x407b00 2 0.02
0x407b08 2 0.02
0x407b10 2 0.02
0x407b18 2 0.02
0x407b20 2 0.02
0x407b28 2 0.02
0x407b30 2 0.02
0x407b38 2 0.02
0x407b40 2 0.02
0x407b48 2 0.02
0x407b50 2 0.02
0x407b58 2 0.02
0x407b60 2 0.02
0x407b68 2 0.02
0x407b70 2 0.02
0x407b78 2 0.02
0x407b80 2 0.02
0x407c30 2 0.02
0x407c38 2 0.02
0x407c40 2 0.02
0x407c48 2 0.02
0x407c50 2 0.02
0x407c58 2 0.02
0x407c60 2 0.02
0x407c68 2 0.02
0x407c70 2 0.02
0x407c78 2 0.02
0x407c80 2 0.02
0x407c88 2 0.02
0x407c90 2 0.02
0x407c98 2 0.02
0x407ca0 2 0.02
0x407ca8 2 0.02
0x407cb0 2 0.02
0x407d60 2 0.02
0x407d68 2 0.02
0x407d70 2 0.02
0x407d78 2 0.02
0x407d80 2 0.02
0x407d88 2 0.02
0x407d90 2 0.02
0x407d98 2 0.02
0x407da0 2 0.02
0x407da8 2 0.02
0x407db0 2 0.02
0x407db8 2 0.02
0x407dc0 2 0.02
0x407dc8 2 0.02
0x407dd0 2 0.02
0x407dd8 2 0.02
0x407de0 2 0.02
0x407e90 2 0.02
0x407e98 2 0.02
0x407ea0 2 0.02
0x407ea8 2 0.02
0x407eb0 2 0.02
0x407eb8 2 0.02
0x407ec0 2 0.02
0x407ec8 2 0.02
0x407ed0 2 0.02
0x407ed8 2 0.02
0x407ee0 2 0.02
0x407ee8 2 0.02
0x407ef0 2 0.02
0x407ef8 2 0.02
0x407f00 2 0.02
0x407f08 2 0.02
0x407f10 2 0.02
0x407fc0 2 0.02
0x407fc8 2 0.02
0x407fd0 2 0.02
0x407fd8 2 0.02
0x407fe0 2 0.02
0x407fe8 2 0.02
0x407ff0 2 0.02
0x407ff8 2 0.02
0x408000 2 0.02
0x408008 2 0.02
0x408010 2 0.02
0x408018 2 0.02
0x408020 2 0.02
0x408028 2 0.02
0x408030 2 0.02
0x408038 2 0.02
0x408040 2 0.02
0x4080f0 2 0.02
0x4080f8 2 0.02
0x408100 2 0.02
0x408108 2 0.02
0x408110 2 0.02
0x408118 2 0.02
0x408120 2 0.02
0x408128 2 0.02
0x408130 2 0.02
0x408138 2 0.02
0x408140 2 0.02
0x408148 2 0.02
0x408150 2 0.02
0x408158 2 0.02
0x408160 2 0.02
0x408168 2 0.02
0x408170 2 0.02
0x408220 2 0.02
0x408228 2 0.02
0x408230 2 0.02
0x408238 2 0.02
0x408240 2 0.02
0x408248 2 0.02
0x408250 2 0.02
0x408258 2 0.02
0x408260 2 0.02
0x408268 2 0.02
0x408270 2 0.02
0x408278 2 0.02
0x408280 2 0.02
0x408288 2 0.02
0x408290 2 0.02
0x408298 2 0.02
0x4082a0 2 0.02
0x408350 2 0.02
0x408358 2 0.02
0x408360 2 0.02
0x408368 2 0.02
0x408370 2 0.02
0x408378 2 0.02
0x408380 2 0.02
0x408388 2 0.02
0x408390 2 0.02
0x408398 2 0.02
0x4083a0 2 0.02
0x4083a8 2 0.02
0x4083b0 2 0.02
0x4083b8 2 0.02
0x4083c0 2 0.02
0x4083c8 2 0.02
0x4083d0 2 0.02
0x408470 2 0.02
0x408478 2 0.02
0x408480 2 0.02
0x408488 2 0.02
0x408490 2 0.02
0x408498 2 0.02
0x4084a0 2 0.02
0x4084a8 2 0.02
0x4084b0 2 0.02
0x4084b8 2 0.02
0x4084c0 2 0.02
0x4084c8 2 0.02
0x4084d0 2 0.02
0x4084d8 2 0.02
0x4084e0 2 0.02
0x4084e8 2 0.02
0x4084f0 2 0.02
0x4085a0 2 0.02
0x4085a8 2 0.02
0x4085b0 2 0.02
0x4085b8 2 0.02
0x4085c0 2 0.02
0x4085c8 2 0.02
0x4085d0 2 0.02
0x4085d8 2 0.02
0x4085e0 2 0.02
0x4085e8 2 0.02
0x4085f0 2 0.02
0x4085f8 2 0.02
0x408600 2 0.02
0x408608 2 0.02
0x408610 2 0.02
0x408618 2 0.02
0x408620 2 0.02
0x4086c0 2 0.02
0x4086c8 2 0.02
0x4086d0 2 0.02
0x4086d8 2 0.02
0x4086e0 2 0.02
0x4086e8 2 0.02
0x4086f0 2 0.02
0x4086f8 2 0.02
0x408700 2 0.02
0x408708 2 0.02
0x408710 2 0.02
0x408718 2 0.02
0x408720 2 0.02
0x408728 2 0.02
0x408730 2 0.02
0x408738 2 0.02
0x408740 2 0.02
0x4087f0 2 0.02
0x4087f8 2 0.02
0x408800 2 0.02
0x408808 2 0.02
0x408810 2 0.02
0x408818 2 0.02
0x408820 2 0.02
0x408828 2 0.02
0x408830 2 0.02
0x408838 2 0.02
0x408840 2 0.02
0x408848 2 0.02
0x408850 2 0.02
0x408858 2 0.02
0x408860 2 0.02
0x408868 2 0.02
0x408870 2 0.02
0x408920 2 0.02
0x408928 2 0.02
0x408930 2 0.02
0x408938 2 0.02
0x408940 2 0.02
0x408948 2 0.02
0x408950 2 0.02
0x408958 2 0.02
0x408960 2 0.02
0x408968 2 0.02
0x408970 2 0.02
0x408978 2 0.02
0x408980 2 0.02
0x408988 2 0.02
0x408990 2 0.02
0x408998 2 0.02
0x4089a0 2 0.02
0x408a50 2 0.02
0x408a58 2 0.02
0x408a60 2 0.02
0x408a68 2 0.02
0x408a70 2 0.02
0x408a78 2 0.02
0x408a80 2 0.02
0x408a88 2 0.02
0x408a90 2 0.02
0x408a98 2 0.02
0x408aa0 2 0.02
0x408aa8 2 0.02
0x408ab0 2 0.02
0x408ab8 2 0.02
0x408ac0 2 0.02
0x408ac8 2 0.02
0x408ad0 2 0.02
0x408b70 2 0.02
0x408b78 2 0.02
0x408b80 2 0.02
0x408b88 2 0.02
0x408b90 2 0.02
0x408b98 2 0.02
0x408ba0 2 0.02
0x408ba8 2 0.02
0x408bb0 2 0.02
0x408bb8 2 0.02
0x408bc0 2 0.02
0x408bc8 2 0.02
0x408bd0 2 0.02
0x408bd8 2 0.02
0x408be0 2 0.02
0x408be8 2 0.02
0x408bf0 2 0.02
0x408ca0 2 0.02
0x408ca8 2 0.02
0x408cb0 2 0.02
0x408cb8 2 0.02
0x408cc0 2 0.02
0x408cc8 2 0.02
0x408cd0 2 0.02
0x408cd8 2 0.02
0x408ce0 2 0.02
0x408ce8 2 0.02
0x408cf0 2 0.02
0x408cf8 2 0.02
0x408d00 2 0.02
0x408d08 2 0.02
0x408d10 2 0.02
0x408d18 2 0.02
0x408d20 2 0.02
0x408dc0 2 0.02
0x408dc8 2 0.02
0x408dd0 2 0.02
0x408dd8 2 0.02
0x408de0 2 0.02
0x408de8 2 0.02
0x408df0 2 0.02
0x408df8 2 0.02
0x408e00 2 0.02
0x408e08 2 0.02
0x408e10 2 0.02
0x408e18 2 0.02
0x408e20 2 0.02
0x408e28 2 0.02
0x408e30 2 0.02
0x408e38 2 0.02
0x408e40 2 0.02
0x408ef0 2 0.02
0x408ef8 2 0.02
0x408f00 2 0.02
0x408f08 2 0.02
0x408f10 2 0.02
0x408f18 2 0.02
0x408f20 2 0.02
0x408f28 2 0.02
0x408f30 2 0.02
0x408f38 2 0.02
0x408f40 2 0.02
0x408f48 2 0.02
0x408f50 2 0.02
0x408f58 2 0.02
0x408f60 2 0.02
0x408f68 2 0.02
0x408f70 2 0.02
0x409020 2 0.02
0x409028 2 0.02
0x409030 2 0.02
0x409038 2 0.02
0x409040 2 0.02
0x409048 2 0.02
0x409050 2 0.02
0x409058 2 0.02
0x409060 2 0.02
0x409068 2 0.02
0x409070 2 0.02
0x409078 2 0.02
0x409080 2 0.02
0x409088 2 0.02
0x409090 2 0.02
0x409098 2 0.02
0x4090a0 2 0.02
0x409150 2 0.02
0x409158 2 0.02
0x409160 2 0.02
0x409168 2 0.02
0x409170 2 0.02
0x409178 2 0.02
0x409180 2 0.02
0x409188 2 0.02
0x409190 2 0.02
0x409198 2 0.02
0x4091a0 2 0.02
0x4091a8 2 0.02
0x4091b0 2 0.02
0x4091b8 2 0.02
0x4091c0 2 0.02
0x4091c8 2 0.02
0x4091d0 2 0.02
0x409270 2 0.02
0x409278 2 0.02
0x409280 2 0.02
0x409288 2 0.02
0x409290 2 0.02
0x409298 2 0.02
0x4092a0 2 0.02
0x4092a8 2 0.02
0x4092b0 2 0.02
0x4092b8 2 0.02
0x4092c0 2 0.02
0x4092c8 2 0.02
0x4092d0 2 0.02
0x4092d8 2 0.02
0x4092e0 2 0.02
0x4092e8 2 0.02
0x4092f0 2 0.02
0x4093a0 2 0.02
0x4093a8 2 0.02
0x4093b0 2 0.02
0x4093b8 2 0.02
0x4093c0 2 0.02
0x4093c8 2 0.02
0x4093d0 2 0.02
0x4093d8 2 0.02
0x4093e0 2 0.02
0x4093e8 2 0.02
0x4093f0 2 0.02
0x4093f8 2 0.02
0x409400 2 0.02
0x409408 2 0.02
0x409410 2 0.02
0x409418 2 0.02
0x409420 2 0.02
0x4094c0 2 0.02
0x4094c8 1 0.01
0x4094d0 1 0.01
0x4094d8 1 0.01
0x4094e0 1 0.01
0x4094e8 1 0.01
0x4094f0 1 0.01
0x4094f8 1 0.01
0x409500 1 0.01
0x409508 1 0.01
0x409510 1 0.01
0x409518 1 0.01
0x409520 1 0.01
0x409528 1 0.01
0x409530 1 0.01
0x409538 1 0.01
0x409540 1 0.01
0x409548 1 0.01
0x409550 1 0.01
0x409558 1 0.01
0x409560 1 0.01
0x409568 1 0.01
0x409570 1 0.01
0x409578 1 0.01
0x409580 1 0.01
0x409630 1 0.01
0x409638 1 0.01
0x409640 1 0.01
0x409648 1 0.01
0x409650 1 0.01
0x4096a0 1 0.01
0x4096a8 1 0.01
0x4096b0 1 0.01
0x4096b8 1 0.01
0x4096c0 1 0.01
0x4096c8 1 0.01
0x4096d0 1 0.01
0x4096d8 1 0.01
0x4096e0 1 0.01
0x4096e8 1 0.01
0x4096f0 1 0.01
0x4096f8 1 0.01
0x409708 1 0.01
0x409710 1 0.01
0x409718 1 0.01
0x409720 1 0.01
0x409728 1 0.01
0x409940 1 0.01
0x409948 1 0.01
0x409950 1 0.01
0x409958 1 0.01
0x409960 1 0.01
0x409968 1 0.01
0x409970 1 0.01
0x409990 1 0.01
0x4099b0 1 0.01
0x4099b8 1 0.01
0x4099c0 1 0.01
0x4099c8 1 0.01
0x4099d0 1 0.01
0x4099d8 1 0.01
0x4099f8 1 0.01
0x409a00 1 0.01
0x409a08 1 0.01
0x409a10 1 0.01
0x409a30 1 0.01
0x409a38 1 0.01
0x409a40 1 0.01
0x409a48 1 0.01
0x409a50 1 0.01
0x409a58 1 0.01
0x409a60 1 0.01
0x409a68 1 0.01
0x409a70 1 0.01
0x409a78 1 0.01
0x409a80 1 0.01
0x409a88 1 0.01
0x409a90 1 0.01
0x409a98 1 0.01
0x409aa0 1 0.01
0x409aa8 1 0.01
0x409ab0 1 0.01
0x409ab8 1 0.01
0x409ac0 1 0.01
0x409ac8 1 0.01
0x409ad0 1 0.01
0x409ad8 1 0.01
0x409ae0 1 0.01
0x409ae8 1 0.01
0x409af8 1 0.01
0x409b00 1 0.01
0x409b08 1 0.01
0x409b10 1 0.01
0x409b18 1 0.01
0x409b20 1 0.01
0x409b28 1 0.01
0x409b30 1 0.01
0x409b38 1 0.01
0x409b40 1 0.01
0x409b48 1 0.01
0x409b50 1 0.01
0x409b58 1 0.01
0x409b60 1 0.01
0x409b68 1 0.01
0x409b70 1 0.01
0x409b78 1 0.01
0x409b80 1 0.01
0x409b88 1 0.01
0x409b90 1 0.01
0x409b98 1 0.01
0x409ba0 1 0.01
0x409ba8 1 0.01
0x409bb0 1 0.01
0x409bb8 1 0.01
0x409bc8 1 0.01
0x409bd0 1 0.01
0x409bd8 1 0.01
0x409be0 1 0.01
0x409be8 1 0.01
0x409bf0 1 0.01
0x409bf8 1 0.01
0x409c00 1 0.01
0x409c08 1 0.01
0x409c10 1 0.01
0x409c18 1 0.01
0x409c20 1 0.01
0x409c28 1 0.01
0x409c30 1 0.01
0x409c38 1 0.01
0x409c40 1 0.01
0x409c48 1 0.01
0x409c78 1 0.01
0x409c80 1 0.01
0x409c90 1 0.01
0x409c98 1 0.01
0x409cb0 1 0.01
0x409cb8 1 0.01
0x409cc0 1 0.01
0x409cc8 1 0.01
0x409cd8 1 0.01
0x409ce0 1 0.01
0x409ce8 1 0.01
0x409cf0 1 0.01
0x409cf8 1 0.01
0x409f80 1 0.01
0x409f88 1 0.01
0x409f90 1 0.01
0x409f98 1 0.01
0x409fa8 1 0.01
0x409fb0 1 0.01
0x409fb8 1 0.01
0x409fc0 1 0.01
0x409fc8 1 0.01
0x409fd0 1 0.01
0x409fd8 1 0.01
0x409fe0 1 0.01
0x409fe8 1 0.01
0x409ff0 1 0.01
0x409ff8 1 0.01
0x40a000 1 0.01
0x40a008 1 0.01
0x40a010 1 0.01
0x40a018 1 0.01
0x40a020 1 0.01
0x40a028 1 0.01
0x40a030 1 0.01
0x40a038 1 0.01
0x40a040 1 0.01
0x40a048 1 0.01
0x40a050 1 0.01
0x40a068 1 0.01
0x40a070 1 0.01
0x40a078 1 0.01
0x40a080 1 0.01
0x40a088 1 0.01
0x40a090 1 0.01
0x40a0a0 1 0.01
0x40a0a8 1 0.01
0x40a440 1 0.01
0x40a448 1 0.01
0x40a450 1 0.01
0x40a458 1 0.01
0x40a460 1 0.01
0x40a468 1 0.01
0x40a470 1 0.01
0x40a478 1 0.01
0x40a480 1 0.01
0x40a488 1 0.01
0x40a490 1 0.01
0x40a498 1 0.01
0x40a4a0 1 0.01
0x40a4a8 1 0.01
0x40a4b0 1 0.01
0x40a4b8 1 0.01
0x40a4c0 1 0.01
0x40a4c8 1 0.01
0x40a4d0 1 0.01
0x40a4d8 1 0.01
0x40a4e0 1 0.01
0x40a4e8 1 0.01
0x40a4f0 1 0.01
0x40a4f8 1 0.01
0x40a500 1 0.01
0x40a508 1 0.01
0x40a5f0 1 0.01
0x40a5f8 1 0.01
0x40a600 1 0.01
0x40a608 1 0.01
0x40a610 1 0.01
0x40a618 1 0.01
0x40a620 1 0.01
0x40a630 1 0.01
0x40a638 1 0.01
0x40a640 1 0.01
0x40a648 1 0.01
0x40a650 1 0.01
0x40a658 1 0.01
0x40a660 1 0.01
0x40a668 1 0.01
0x40a670 1 0.01
0x40a678 1 0.01
0x40a680 1 0.01
0x40a688 1 0.01
0x40a690 1 0.01
0x40a698 1 0.01
0x40a6a0 1 0.01
0x40a6a8 1 0.01
0x40a6b0 1 0.01
0x40a948 1 0.01
0x40a950 1 0.01
0x40a958 1 0.01
0x40a960 1 0.01
0x40a968 1 0.01
0x40a970 1 0.01
0x40a978 1 0.01
0x40a980 1 0.01
0x40a990 4 0.04
0x40a998 4 0.04
0x40a9a0 4 0.04
0x40a9a8 4 0.04
0x40a9b0 4 0.04
0x40a9b8 4 0.04
0x40a9c0 4 0.04
0x40a9c8 1 0.01
0x40a9d0 1 0.01
0x40a9d8 1 0.01
0x40a9e0 1 0.01
0x40a9e8 1 0.01
0x40a9f0 1 0.01
0x40a9f8 3 0.03
0x40aa00 3 0.03
0x40aa18 3 0.03
0x40aa20 3 0.03
0x40aa28 3 0.03
0x40aa30 3 0.03
0x40aa38 3 0.03
0x40aa40 3 0.03
0x40aa48 1 0.01
0x40aa50 1 0.01
0x40aa58 3 0.03
0x40aa60 3 0.03
0x40aa68 3 0.03
0x40aa70 3 0.03
0x40aa88 3 0.03
0x40aa90 3 0.03
0x40aa98 3 0.03
0x40aaa0 3 0.03
0x40aac8 3 0.03
0x40aad0 3 0.03
0x40aad8 3 0.03
0x40aae0 2 0.02
0x40aae8 2 0.02
0x40aaf0 2 0.02
0x40aaf8 2 0.02
0x40ab00 2 0.02
0x40ab18 3 0.03
0x40ab20 3 0.03
0x40ab28 1 0.01
0x40ab30 1 0.01
0x40ab38 1 0.01
0x40ab40 1 0.01
0x40ab48 3 0.03
0x40ab50 3 0.03
0x40ab58 2 0.02
0x40ab60 2 0.02
0x40ab68 2 0.02
0x40ab70 2 0.02
0x40ab78 1 0.01
0x40ab80 1 0.01
0x40ab88 1 0.01
0x40ab90 1 0.01
0x40ab98 1 0.01
0x40abb8 1 0.01
0x40abc0 3 0.03
0x40abc8 3 0.03
0x40abd0 3 0.03
0x40abd8 4 0.04
0x40abe0 4 0.04
0x40abe8 4 0.04
0x40abf0 4 0.04
0x40abf8 4 0.04
0x40ac00 4 0.04
0x40ac30 1 0.01
0x40ac38 1 0.01
0x40ac40 1 0.01
0x40ac48 1 0.01
0x40ac80 1 0.01
0x40ac88 1 0.01
0x40ac90 1 0.01
0x40ac98 1 0.01
0x40aca0 1 0.01
0x40aca8 1 0.01
0x40acb0 3 0.03
0x40acb8 3 0.03
0x40acc0 3 0.03
0x40acc8 3 0.03
0x40acd0 3 0.03
0x40acd8 3 0.03
0x40ace0 3 0.03
0x40ace8 3 0.03
0x40acf0 2 0.02
0x40acf8 2 0.02
0x40ad00 2 0.02
0x40ad08 2 0.02
0x40ad10 2 0.02
0x40ad18 2 0.02
0x40ad20 1 0.01
0x40ad28 1 0.01
0x40ad30 1 0.01
0x40ad38 1 0.01
0x40adb8 1 0.01
0x40adc0 1 0.01
0x40adc8 1 0.01
0x40add0 3 0.03
0x40add8 3 0.03
0x40ade0 3 0.03
0x40ade8 3 0.03
0x40adf0 3 0.03
0x40adf8 3 0.03
0x40ae00 3 0.03
0x40ae08 3 0.03
0x40ae10 3 0.03
0x40ae18 3 0.03
0x40ae20 4 0.04
0x40ae28 4 0.04
0x40ae30 4 0.04
0x40ae38 4 0.04
0x40ae40 4 0.04
0x40ae48 4 0.04
0x40ae50 4 0.04
0x40ae58 4 0.04
0x40ae60 4 0.04
0x40ae68 4 0.04
0x40ae98 4 0.04
0x40aea0 4 0.04
0x40aea8 4 0.04
0x40aeb0 390 3.81
0x40aeb8 390 3.81
0x40aec0 390 3.81
0x40aec8 390 3.81
0x40aed0 390 3.81
0x40aed8 390 3.81
0x40aee0 390 3.81
0x40aee8 390 3.81
0x40aef0 390 3.81
0x40aef8 390 3.81
0x40af00 390 3.81
0x40af08 390 3.81
0x40af10 4 0.04
0x40af18 4 0.04
0x40af20 4 0.04
0x40af28 12 0.12
0x40af30 12 0.12
0x40af38 12 0.12
0x40af40 12 0.12
0x40af48 4 0.04
0x40af50 4 0.04
0x40af78 4 0.04
0x40af80 4 0.04
0x40b150 1 0.01
0x40b158 1 0.01
0x40b160 1 0.01
0x40b168 1 0.01
0x40b170 1 0.01
0x40b178 1 0.01
0x40b180 1 0.01
0x40b188 1 0.01
0x40b190 1 0.01
0x40b198 1 0.01
0x40b1a8 1 0.01
0x40b1b0 1 0.01
0x40b1b8 1 0.01
0x40b1c0 1 0.01
0x40b1c8 1 0.01
0x40b1d0 1 0.01
0x40b1d8 1 0.01
0x40b1e0 1 0.01
0x40b1e8 1 0.01
0x40b1f0 1 0.01
0x40b1f8 1 0.01
0x40b200 1 0.01
0x40b208 1 0.01
0x40b210 1 0.01
0x40b218 1 0.01
0x40b220 1 0.01
0x40b228 1 0.01
0x40b230 1 0.01
0x40b238 1 0.01
0x40b240 1 0.01
0x40b248 1 0.01
0x40b250 1 0.01
0x40b258 1 0.01
0x40b260 1 0.01
0x40b268 1 0.01
0x40b2b8 1 0.01
0x40b2c0 1 0.01
0x40b2c8 1 0.01
0x40b2d0 1 0.01
0x40b2d8 1 0.01
0x40b2e0 1 0.01
0x40b2e8 1 0.01
0x40b300 1 0.01
0x40b308 1 0.01
0x40b310 1 0.01
0x40b318 1 0.01
0x40b320 1 0.01
0x40b328 1 0.01
0x40b330 1 0.01
0x40b338 1 0.01
0x40b340 1 0.01
0x40b348 1 0.01
0x40b350 1 0.01
0x40b358 1 0.01
0x40b360 1 0.01
0x40b3b0 1 0.01
0x40b3b8 1 0.01
0x40b3c0 1 0.01
0x40b3c8 1 0.01
0x40b3d0 1 0.01
0x40b3d8 1 0.01
0x40b3e0 1 0.01
0x40b3e8 1 0.01
0x40b3f0 1 0.01
0x40b3f8 1 0.01
0x40b400 1 0.01
0x40b408 1 0.01
0x40b410 1 0.01
0x40b418 1 0.01
0x40b420 1 0.01
0x40b428 1 0.01
0x40b430 1 0.01
0x40b438 1 0.01
0x40b440 1 0.01
0x40b448 1 0.01
0x40b450 1 0.01
0x40b458 1 0.01
0x40b460 1 0.01
0x40b468 1 0.01
0x40b470 1 0.01
0x40b478 1 0.01
0x40b480 1 0.01
0x40b488 1 0.01
0x40b540 1 0.01
0x40b548 1 0.01
0x40b550 1 0.01
0x40b558 1 0.01
0x40b560 1 0.01
0x40b6b0 1 0.01
0x40b6b8 1 0.01
0x40b9c8 1 0.01
0x40b9d0 1 0.01
0x40b9d8 1 0.01
0x40b9e0 1 0.01
0x40b9e8 1 0.01
0x40b9f0 1 0.01
0x40b9f8 1 0.01
0x40ba00 1 0.01
0x40ba08 1 0.01
0x40ba10 1 0.01
0x40ba18 1 0.01
0x40ba20 1 0.01
0x40ba48 1 0.01
0x40ba50 1 0.01
0x40ba80 1 0.01
0x40ba88 1 0.01
0x40ba90 1 0.01
0x40ba98 1 0.01
0x40bec8 2 0.02
0x40bed0 2 0.02
0x40bed8 2 0.02
0x40bee0 2 0.02
0x40bee8 2 0.02
0x40bef0 2 0.02
0x40bef8 2 0.02
0x40bf00 2 0.02
0x40bf08 2 0.02
0x40bf10 2 0.02
0x40bf18 2 0.02
0x40bf20 2 0.02
0x40bf28 2 0.02
0x40bf30 2 0.02
0x40bf38 2 0.02
0x40bf40 2 0.02
0x40bf48 2 0.02
0x40bf50 2 0.02
0x40bf58 2 0.02
0x40bf60 2 0.02
0x40bf68 2 0.02
0x40bf70 2 0.02
0x40bf78 2 0.02
0x40bf80 2 0.02
0x40bf88 2 0.02
0x40bf90 2 0.02
0x40bf98 2 0.02
0x40bfa0 2 0.02
0x40c158 2 0.02
0x40c160 2 0.02
0x40c168 1 0.01
0x40c170 1 0.01
0x40c178 1 0.01
0x40c180 1 0.01
0x40c188 1 0.01
0x40c190 1 0.01
0x40c198 1 0.01
0x40c200 2 0.02
0x40c208 2 0.02
0x40c210 2 0.02
0x40c218 2 0.02
0x40c250 2 0.02
0x40c258 2 0.02
0x40c260 2 0.02
0x40c268 2 0.02
0x40c270 2 0.02
0x40c278 2 0.02
0x40c280 2 0.02
0x40c288 2 0.02
0x40c290 2 0.02
0x40c298 2 0.02
0x40c2a0 2 0.02
0x40c5a0 2 0.02
0x40c5a8 2 0.02
0x40c5b0 2 0.02
0x40c5b8 2 0.02
0x40c5c0 2 0.02
0x40c5c8 2 0.02
0x40c5d0 2 0.02
0x40c5d8 2 0.02
0x40c5e0 2 0.02
0x40c5f8 2 0.02
0x40c600 2 0.02
0x40c608 2 0.02
0x40c610 2 0.02
0x40c618 2 0.02
0x40c620 2 0.02
0x40c628 2 0.02
0x40c630 2 0.02
0x40c638 2 0.02
0x40c640 2 0.02
0x40c648 2 0.02
0x40cae0 2 0.02
0x40cae8 2 0.02
0x40caf0 2 0.02
0x40caf8 2 0.02
0x40cb00 2 0.02
0x40cb08 2 0.02
0x40cb10 2 0.02
0x40cb18 2 0.02
0x40cb20 2 0.02
0x40cb28 2 0.02
0x40cb30 2 0.02
0x40cb38 2 0.02
0x40cb40 2 0.02
0x40cb48 2 0.02
0x40cb50 2 0.02
0x40cb68 2 0.02
0x40cb70 2 0.02
0x40cb78 2 0.02
0x40cb80 2 0.02
0x40cb88 2 0.02
0x40cb90 2 0.02
0x40cb98 2 0.02
0x40cbc0 2 0.02
0x40cbc8 2 0.02
0x40cbd0 2 0.02
0x40cbd8 2 0.02
0x40cbe0 2 0.02
0x40cc18 2 0.02
0x40cc20 2 0.02
0x40cc28 2 0.02
0x40cc30 2 0.02
0x40cc38 2 0.02
0x40cc40 2 0.02
0x40cc48 2 0.02
0x40cc50 2 0.02
0x40cc58 2 0.02
0x40cc60 2 0.02
0x40cc68 2 0.02
0x40cc70 2 0.02
0x40cc78 2 0.02
0x40cc80 2 0.02
0x40cc88 2 0.02
0x40cc90 2 0.02
0x40cc98 2 0.02
0x40cca0 2 0.02
0x40cca8 2 0.02
0x40ccb0 2 0.02
0x40ccb8 2 0.02
0x40ccc0 2 0.02
0x40ccc8 2 0.02
0x40ccd0 2 0.02
0x40ccd8 2 0.02
0x40cce0 2 0.02
0x40cce8 2 0.02
0x40ccf0 2 0.02
0x40ccf8 2 0.02
0x40cd00 2 0.02
0x40cd08 1 0.01
0x40cd10 1 0.01
0x40cd28 1 0.01
0x40cd30 1 0.01
0x40cd38 1 0.01
0x40cd40 1 0.01
0x40cd48 1 0.01
0x40cd50 1 0.01
0x40cd58 1 0.01
0x40cd90 1 0.01
0x40cd98 1 0.01
0x40cda0 1 0.01
0x40cdc8 2 0.02
0x40cdd0 2 0.02
0x40cdd8 2 0.02
0x40cde0 2 0.02
0x40cde8 2 0.02
0x40cdf0 2 0.02
0x40cdf8 2 0.02
0x40ce00 2 0.02
0x40ce08 2 0.02
0x40ce38 2 0.02
0x40cf00 2 0.02
0x40cf08 2 0.02
0x40cf10 2 0.02
0x40cf38 2 0.02
0x40cf40 2 0.02
0x40cf50 2 0.02
0x40cf58 2 0.02
0x40cf60 2 0.02
0x40cf68 2 0.02
0x40cf70 2 0.02
0x40cf78 2 0.02
0x40cfa8 2 0.02
0x40cfb0 2 0.02
0x40cfb8 2 0.02
0x40cfc0 2 0.02
0x40cfd8 2 0.02
0x40cfe0 2 0.02
0x40cfe8 2 0.02
0x40cff0 2 0.02
0x40cff8 2 0.02
0x40d000 2 0.02
0x40d008 2 0.02
0x40d010 2 0.02
0x40d5a8 3 0.03
0x40d5b0 3 0.03
0x40d5b8 3 0.03
0x40d5c0 3 0.03
0x40d5c8 3 0.03
0x40d5d0 3 0.03
0x40d5d8 3 0.03
0x40d5e0 3 0.03
0x40d5e8 3 0.03
0x40d5f0 3 0.03
0x40d5f8 3 0.03
0x40d600 3 0.03
0x40d608 3 0.03
0x40d610 3 0.03
0x40d618 3 0.03
0x40d7c0 2 0.02
0x40d7c8 2 0.02
0x40d7d0 2 0.02
0x40d7d8 2 0.02
0x40d7e0 2 0.02
0x40d7e8 2 0.02
0x40dc60 3 0.03
0x40dc68 3 0.03
0x40dc70 3 0.03
0x40dc78 3 0.03
0x40dc90 3 0.03
0x40dc98 3 0.03
0x40dca0 3 0.03
0x40dca8 3 0.03
0x40dcb0 3 0.03
0x40dcb8 3 0.03
0x40dcc0 3 0.03
0x40dcc8 3 0.03
0x40dcd0 3 0.03
0x40dcd8 3 0.03
0x40dce0 3 0.03
0x40e540 2 0.02
0x40e548 2 0.02
0x40e550 2 0.02
0x40e558 2 0.02
0x40e560 2 0.02
0x40e568 2 0.02
0x40e570 2 0.02
0x40e578 2 0.02
0x40e580 2 0.02
0x40e588 2 0.02
0x40e590 2 0.02
0x40e598 1 0.01
0x40e5a0 1 0.01
0x40e5a8 1 0.01
0x40e5b0 1 0.01
0x40e5b8 1 0.01
0x40e5c0 1 0.01
0x40e5c8 1 0.01
0x40e5d0 1 0.01
0x40e5f8 1 0.01
0x40e600 1 0.01
0x40e640 1 0.01
0x40e648 1 0.01
0x40e650 2 0.02
0x40e658 2 0.02
0x40e660 2 0.02
0x40e668 2 0.02
0x40e670 2 0.02
0x40e750 2 0.02
0x40e758 2 0.02
0x40e760 2 0.02
0x40e768 2 0.02
0x40e770 2 0.02
0x40e800 3 0.03
0x40e808 3 0.03
0x40e810 3 0.03
0x40e820 3 0.03
0x40e828 3 0.03
0x40e830 3 0.03
0x40e838 3 0.03
0x40e840 3 0.03
0x40e848 3 0.03
0x40e870 1 0.01
0x40e878 1 0.01
0x40e880 1 0.01
0x40e888 1 0.01
0x40e890 1 0.01
sim_num_insn_by_pc.end_dist

ld_text_base             0x00400000 # target_name text (code) segment base
ld_text_size                  59856 # target_name text (code) size in bytes
ld_data_base             0x10000000 # target_name initialized data segment base
ld_data_size                   4096 # target_name init'ed `.data' and uninit'ed `.bss' size in bytes
ld_stack_base            0x7fffc000 # target_name stack segment base (highest address in stack)
ld_stack_size                 16384 # target_name initial stack size
ld_prog_entry            0x00400140 # target_name entry point (initial PC)
ld_environ_base          0x7fff8000 # target_name environment base address address
ld_target_big_endian              0 # target executable endian-ness, non-zero if big endian
mem.page_count                   21 # total number of pages allocated
mem.page_mem                    84k # total size of memory pages allocated
mem.ptab_misses                  21 # total first level page table misses
mem.ptab_accesses            419650 # total page table accesses
mem.ptab_miss_rate           0.0001 # first level page table miss rate

+--------------------------------------------------------------+
| effective code range:         [0, fffffff8]                  |
| effective bpred count:        0                              |
| effective sim cycles:         0                              |
| effective bpred misses:       0                              |
| effective icache misses:      0                              |
+--------------------------------------------------------------+

