sim-profile: SimpleScalar/PISA Tool Set version 3.0 of August, 2003.
Copyright (c) 1994-2003 by Todd M. Austin, Ph.D. and SimpleScalar, LLC.
All Rights Reserved. This version of SimpleScalar is licensed for academic
non-commercial use.  No portion of this work may be used by any commercial
entity, or for any commercial purpose, without the prior written permission
of SimpleScalar, LLC (info@simplescalar.com).

sim: command line: /home/sudiptac/sudiptac/Work/simplesim-3.0/sim-profile -pcstat sim_num_insn expint 

sim: simulation started @ Fri Nov 25 18:19:23 2011, options follow:

sim-profile: This simulator implements a functional simulator with
profiling support.  Run with the `-h' flag to see profiling options
available.

# -config                     # load configuration from a file
# -dumpconfig                 # dump configuration to a file
# -h                    false # print help message    
# -v                    false # verbose operation     
# -d                    false # enable debug message  
# -i                    false # start in Dlite debugger
-seed                       1 # random number generator seed (0 for timer seed)
# -q                    false # initialize and terminate immediately
# -chkpt               <null> # restore EIO trace execution from <fname>
# -redir:sim           <null> # redirect simulator output to file (non-interactive only)
# -redir:prog          <null> # redirect simulated target_name output to file
-nice                       0 # simulator scheduling priority
-max:inst                   0 # maximum number of inst's to execute
-all                    false # enable all profile options
-iclass                 false # enable instruction class profiling
-iprof                  false # enable instruction profiling
-brprof                 false # enable branch instruction profiling
-amprof                 false # enable address mode profiling
-segprof                false # enable load/store address segment profiling
-tsymprof               false # enable text symbol profiling
-taddrprof              false # enable text address profiling
-dsymprof               false # enable data symbol profiling
-internal               false # include compiler-internal symbols during symbol profiling
# -pcstat        sim_num_insn # profile stat(s) against text addr's (mult uses ok)

sim: ** starting functional simulation **

sim: ** simulation statistics **
sim_num_insn                   7907 # total number of instructions executed
sim_num_refs                   3592 # total number of loads and stores executed
sim_elapsed_time                  1 # total simulation time in seconds
sim_inst_rate             7907.0000 # simulation speed (in insts/sec)

sim_num_insn_by_pc     # total number of instructions executed (by text address)
sim_num_insn_by_pc.count = 856
sim_num_insn_by_pc.total = 7906
sim_num_insn_by_pc.imin = 0x400140
sim_num_insn_by_pc.imax = 0x4058f0
sim_num_insn_by_pc.average =   9.2360
sim_num_insn_by_pc.std_dev =  46.5254
sim_num_insn_by_pc.overflows = 0
# pdf == prob dist fn, cdf == cumulative dist fn
#          index      count    pdf 
sim_num_insn_by_pc.start_dist
0x400140 1 0.01
0x400148 1 0.01
0x400150 1 0.01
0x400158 1 0.01
0x400160 1 0.01
0x400168 1 0.01
0x400170 1 0.01
0x400178 1 0.01
0x400180 1 0.01
0x400188 1 0.01
0x400190 1 0.01
0x400198 1 0.01
0x4001a0 1 0.01
0x4001a8 1 0.01
0x4001b0 1 0.01
0x4001b8 1 0.01
0x4001c0 1 0.01
0x4001c8 1 0.01
0x4001d0 1 0.01
0x4001d8 1 0.01
0x4001e0 1 0.01
0x4001f0 1 0.01
0x4001f8 1 0.01
0x400200 1 0.01
0x400208 1 0.01
0x400210 1 0.01
0x400218 1 0.01
0x400220 1 0.01
0x400228 1 0.01
0x400230 1 0.01
0x400238 1 0.01
0x400240 1 0.01
0x400248 1 0.01
0x400250 1 0.01
0x400258 1 0.01
0x400260 1 0.01
0x400268 49 0.62
0x400270 49 0.62
0x400278 49 0.62
0x400280 1 0.01
0x400288 1 0.01
0x400290 1 0.01
0x400298 1 0.01
0x4002a0 48 0.61
0x4002a8 48 0.61
0x4002b8 48 0.61
0x4002c0 48 0.61
0x4002e0 48 0.61
0x4002e8 48 0.61
0x4002f0 48 0.61
0x4002f8 48 0.61
0x400300 48 0.61
0x400308 48 0.61
0x400310 48 0.61
0x400320 48 0.61
0x400328 48 0.61
0x400330 1 0.01
0x400338 1 0.01
0x400348 48 0.61
0x400350 48 0.61
0x400358 48 0.61
0x400360 48 0.61
0x400368 48 0.61
0x400370 1 0.01
0x400378 1 0.01
0x400380 1 0.01
0x400390 1 0.01
0x400398 1 0.01
0x4003b8 1 0.01
0x4003c0 1 0.01
0x4003c8 1 0.01
0x4003d0 1 0.01
0x4003d8 1 0.01
0x4003e0 1 0.01
0x4003e8 1 0.01
0x4003f0 1 0.01
0x4003f8 1 0.01
0x400400 1 0.01
0x400408 1 0.01
0x400410 1 0.01
0x400418 1 0.01
0x400420 1 0.01
0x400428 1 0.01
0x400430 1 0.01
0x400438 1 0.01
0x400440 1 0.01
0x400448 51 0.65
0x400450 51 0.65
0x400460 51 0.65
0x400468 51 0.65
0x400488 51 0.65
0x400490 51 0.65
0x400498 51 0.65
0x4004a0 51 0.65
0x4004a8 51 0.65
0x4004b0 51 0.65
0x4004b8 51 0.65
0x4004c8 51 0.65
0x4004d0 51 0.65
0x4004f0 51 0.65
0x4004f8 51 0.65
0x400500 51 0.65
0x400508 51 0.65
0x400510 51 0.65
0x400518 1 0.01
0x400520 1 0.01
0x400530 1 0.01
0x400538 1 0.01
0x400540 1 0.01
0x400548 1 0.01
0x400550 1 0.01
0x400558 1 0.01
0x400560 1 0.01
0x400568 1 0.01
0x400570 1 0.01
0x400578 1 0.01
0x400580 1 0.01
0x400588 1 0.01
0x400590 1 0.01
0x400598 1 0.01
0x4005a0 1 0.01
0x4005a8 1 0.01
0x4005b0 1 0.01
0x4005b8 1 0.01
0x4005c0 1 0.01
0x4005c8 1 0.01
0x4005d0 1 0.01
0x4005d8 1 0.01
0x4005e0 1 0.01
0x400690 1 0.01
0x400698 1 0.01
0x4006a0 1 0.01
0x4006a8 1 0.01
0x4006b0 1 0.01
0x400700 1 0.01
0x400708 1 0.01
0x400710 1 0.01
0x400718 1 0.01
0x400720 1 0.01
0x400728 1 0.01
0x400730 1 0.01
0x400738 1 0.01
0x400740 1 0.01
0x400748 1 0.01
0x400750 1 0.01
0x400758 1 0.01
0x400768 1 0.01
0x400770 1 0.01
0x400778 1 0.01
0x400780 1 0.01
0x400788 1 0.01
0x4009a0 1 0.01
0x4009a8 1 0.01
0x4009b0 1 0.01
0x4009b8 1 0.01
0x4009c0 1 0.01
0x4009c8 1 0.01
0x4009d0 1 0.01
0x4009f0 1 0.01
0x400a10 1 0.01
0x400a18 1 0.01
0x400a20 1 0.01
0x400a28 1 0.01
0x400a30 1 0.01
0x400a38 1 0.01
0x400a58 1 0.01
0x400a60 1 0.01
0x400a68 1 0.01
0x400a70 1 0.01
0x400a90 1 0.01
0x400a98 1 0.01
0x400aa0 1 0.01
0x400aa8 1 0.01
0x400ab0 1 0.01
0x400ab8 1 0.01
0x400ac0 1 0.01
0x400ac8 1 0.01
0x400ad0 1 0.01
0x400ad8 1 0.01
0x400ae0 1 0.01
0x400ae8 1 0.01
0x400af0 1 0.01
0x400af8 1 0.01
0x400b00 1 0.01
0x400b08 1 0.01
0x400b10 1 0.01
0x400b18 1 0.01
0x400b20 1 0.01
0x400b28 1 0.01
0x400b30 1 0.01
0x400b38 1 0.01
0x400b40 1 0.01
0x400b48 1 0.01
0x400b58 1 0.01
0x400b60 1 0.01
0x400b68 1 0.01
0x400b70 1 0.01
0x400b78 1 0.01
0x400b80 1 0.01
0x400b88 1 0.01
0x400b90 1 0.01
0x400b98 1 0.01
0x400ba0 1 0.01
0x400ba8 1 0.01
0x400bb0 1 0.01
0x400bb8 1 0.01
0x400bc0 1 0.01
0x400bc8 1 0.01
0x400bd0 1 0.01
0x400bd8 1 0.01
0x400be0 1 0.01
0x400be8 1 0.01
0x400bf0 1 0.01
0x400bf8 1 0.01
0x400c00 1 0.01
0x400c08 1 0.01
0x400c10 1 0.01
0x400c18 1 0.01
0x400c28 1 0.01
0x400c30 1 0.01
0x400c38 1 0.01
0x400c40 1 0.01
0x400c48 1 0.01
0x400c50 1 0.01
0x400c58 1 0.01
0x400c60 1 0.01
0x400c68 1 0.01
0x400c70 1 0.01
0x400c78 1 0.01
0x400c80 1 0.01
0x400c88 1 0.01
0x400c90 1 0.01
0x400c98 1 0.01
0x400ca0 1 0.01
0x400ca8 1 0.01
0x400cd8 1 0.01
0x400ce0 1 0.01
0x400cf0 1 0.01
0x400cf8 1 0.01
0x400d10 1 0.01
0x400d18 1 0.01
0x400d20 1 0.01
0x400d28 1 0.01
0x400d38 1 0.01
0x400d40 1 0.01
0x400d48 1 0.01
0x400d50 1 0.01
0x400d58 1 0.01
0x400fe0 1 0.01
0x400fe8 1 0.01
0x400ff0 1 0.01
0x400ff8 1 0.01
0x401008 1 0.01
0x401010 1 0.01
0x401018 1 0.01
0x401020 1 0.01
0x401028 1 0.01
0x401030 1 0.01
0x401038 1 0.01
0x401040 1 0.01
0x401048 1 0.01
0x401050 1 0.01
0x401058 1 0.01
0x401060 1 0.01
0x401068 1 0.01
0x401070 1 0.01
0x401078 1 0.01
0x401080 1 0.01
0x401088 1 0.01
0x401090 1 0.01
0x401098 1 0.01
0x4010a0 1 0.01
0x4010a8 1 0.01
0x4010b0 1 0.01
0x4010c8 1 0.01
0x4010d0 1 0.01
0x4010d8 1 0.01
0x4010e0 1 0.01
0x4010e8 1 0.01
0x4010f0 1 0.01
0x401100 1 0.01
0x401108 1 0.01
0x4014a0 1 0.01
0x4014a8 1 0.01
0x4014b0 1 0.01
0x4014b8 1 0.01
0x4014c0 1 0.01
0x4014c8 1 0.01
0x4014d0 1 0.01
0x4014d8 1 0.01
0x4014e0 1 0.01
0x4014e8 1 0.01
0x4014f0 1 0.01
0x4014f8 1 0.01
0x401500 1 0.01
0x401508 1 0.01
0x401510 1 0.01
0x401518 1 0.01
0x401520 1 0.01
0x401528 1 0.01
0x401530 1 0.01
0x401538 1 0.01
0x401540 1 0.01
0x401548 1 0.01
0x401550 1 0.01
0x401558 1 0.01
0x401560 1 0.01
0x401568 1 0.01
0x401650 1 0.01
0x401658 1 0.01
0x401660 1 0.01
0x401668 1 0.01
0x401670 1 0.01
0x401678 1 0.01
0x401680 1 0.01
0x401690 1 0.01
0x401698 1 0.01
0x4016a0 1 0.01
0x4016a8 1 0.01
0x4016b0 1 0.01
0x4016b8 1 0.01
0x4016c0 1 0.01
0x4016c8 1 0.01
0x4016d0 1 0.01
0x4016d8 1 0.01
0x4016e0 1 0.01
0x4016e8 1 0.01
0x4016f0 1 0.01
0x4016f8 1 0.01
0x401700 1 0.01
0x401708 1 0.01
0x401710 1 0.01
0x4019a8 1 0.01
0x4019b0 1 0.01
0x4019b8 1 0.01
0x4019c0 1 0.01
0x4019c8 1 0.01
0x4019d0 1 0.01
0x4019d8 1 0.01
0x4019e0 1 0.01
0x4019f0 4 0.05
0x4019f8 4 0.05
0x401a00 4 0.05
0x401a08 4 0.05
0x401a10 4 0.05
0x401a18 4 0.05
0x401a20 4 0.05
0x401a28 1 0.01
0x401a30 1 0.01
0x401a38 1 0.01
0x401a40 1 0.01
0x401a48 1 0.01
0x401a50 1 0.01
0x401a58 3 0.04
0x401a60 3 0.04
0x401a78 3 0.04
0x401a80 3 0.04
0x401a88 3 0.04
0x401a90 3 0.04
0x401a98 3 0.04
0x401aa0 3 0.04
0x401aa8 1 0.01
0x401ab0 1 0.01
0x401ab8 3 0.04
0x401ac0 3 0.04
0x401ac8 3 0.04
0x401ad0 3 0.04
0x401ae8 3 0.04
0x401af0 3 0.04
0x401af8 3 0.04
0x401b00 3 0.04
0x401b28 3 0.04
0x401b30 3 0.04
0x401b38 3 0.04
0x401b40 2 0.03
0x401b48 2 0.03
0x401b50 2 0.03
0x401b58 2 0.03
0x401b60 2 0.03
0x401b78 3 0.04
0x401b80 3 0.04
0x401b88 1 0.01
0x401b90 1 0.01
0x401b98 1 0.01
0x401ba0 1 0.01
0x401ba8 3 0.04
0x401bb0 3 0.04
0x401bb8 2 0.03
0x401bc0 2 0.03
0x401bc8 2 0.03
0x401bd0 2 0.03
0x401bd8 1 0.01
0x401be0 1 0.01
0x401be8 1 0.01
0x401bf0 1 0.01
0x401bf8 1 0.01
0x401c18 1 0.01
0x401c20 3 0.04
0x401c28 3 0.04
0x401c30 3 0.04
0x401c38 4 0.05
0x401c40 4 0.05
0x401c48 4 0.05
0x401c50 4 0.05
0x401c58 4 0.05
0x401c60 4 0.05
0x401c90 1 0.01
0x401c98 1 0.01
0x401ca0 1 0.01
0x401ca8 1 0.01
0x401ce0 1 0.01
0x401ce8 1 0.01
0x401cf0 1 0.01
0x401cf8 1 0.01
0x401d00 1 0.01
0x401d08 1 0.01
0x401d10 2 0.03
0x401d18 2 0.03
0x401d20 2 0.03
0x401d28 2 0.03
0x401d30 2 0.03
0x401d38 2 0.03
0x401d40 2 0.03
0x401d48 2 0.03
0x401d50 1 0.01
0x401d58 1 0.01
0x401d60 1 0.01
0x401d68 1 0.01
0x401d70 1 0.01
0x401d78 1 0.01
0x401d80 1 0.01
0x401d88 1 0.01
0x401d90 1 0.01
0x401d98 1 0.01
0x401da0 1 0.01
0x401da8 1 0.01
0x401db0 1 0.01
0x401db8 1 0.01
0x401dc0 1 0.01
0x401dc8 1 0.01
0x401dd0 1 0.01
0x401dd8 1 0.01
0x401e18 1 0.01
0x401e20 1 0.01
0x401e28 1 0.01
0x401e30 3 0.04
0x401e38 3 0.04
0x401e40 3 0.04
0x401e48 3 0.04
0x401e50 3 0.04
0x401e58 3 0.04
0x401e60 3 0.04
0x401e68 3 0.04
0x401e70 3 0.04
0x401e78 3 0.04
0x401e80 4 0.05
0x401e88 4 0.05
0x401e90 4 0.05
0x401e98 4 0.05
0x401ea0 4 0.05
0x401ea8 4 0.05
0x401eb0 4 0.05
0x401eb8 4 0.05
0x401ec0 4 0.05
0x401ec8 4 0.05
0x401ef8 4 0.05
0x401f00 4 0.05
0x401f08 4 0.05
0x401f10 390 4.93
0x401f18 390 4.93
0x401f20 390 4.93
0x401f28 390 4.93
0x401f30 390 4.93
0x401f38 390 4.93
0x401f40 390 4.93
0x401f48 390 4.93
0x401f50 390 4.93
0x401f58 390 4.93
0x401f60 390 4.93
0x401f68 390 4.93
0x401f70 4 0.05
0x401f78 4 0.05
0x401f80 4 0.05
0x401f88 12 0.15
0x401f90 12 0.15
0x401f98 12 0.15
0x401fa0 12 0.15
0x401fa8 4 0.05
0x401fb0 4 0.05
0x401fd8 4 0.05
0x401fe0 4 0.05
0x4021b0 1 0.01
0x4021b8 1 0.01
0x4021c0 1 0.01
0x4021c8 1 0.01
0x4021d0 1 0.01
0x4021d8 1 0.01
0x4021e0 1 0.01
0x4021e8 1 0.01
0x4021f0 1 0.01
0x4021f8 1 0.01
0x402208 1 0.01
0x402210 1 0.01
0x402218 1 0.01
0x402220 1 0.01
0x402228 1 0.01
0x402230 1 0.01
0x402238 1 0.01
0x402240 1 0.01
0x402248 1 0.01
0x402250 1 0.01
0x402258 1 0.01
0x402260 1 0.01
0x402268 1 0.01
0x402270 1 0.01
0x402278 1 0.01
0x402280 1 0.01
0x402288 1 0.01
0x402290 1 0.01
0x402298 1 0.01
0x4022a0 1 0.01
0x4022a8 1 0.01
0x4022b0 1 0.01
0x4022b8 1 0.01
0x4022c0 1 0.01
0x4022c8 1 0.01
0x402318 1 0.01
0x402320 1 0.01
0x402328 1 0.01
0x402330 1 0.01
0x402338 1 0.01
0x402340 1 0.01
0x402348 1 0.01
0x402360 1 0.01
0x402368 1 0.01
0x402370 1 0.01
0x402378 1 0.01
0x402380 1 0.01
0x402388 1 0.01
0x402390 1 0.01
0x402398 1 0.01
0x4023a0 1 0.01
0x4023a8 1 0.01
0x4023b0 1 0.01
0x4023b8 1 0.01
0x4023c0 1 0.01
0x402410 1 0.01
0x402418 1 0.01
0x402420 1 0.01
0x402428 1 0.01
0x402430 1 0.01
0x402438 1 0.01
0x402440 1 0.01
0x402448 1 0.01
0x402450 1 0.01
0x402458 1 0.01
0x402460 1 0.01
0x402468 1 0.01
0x402470 1 0.01
0x402478 1 0.01
0x402480 1 0.01
0x402488 1 0.01
0x402490 1 0.01
0x402498 1 0.01
0x4024a0 1 0.01
0x4024a8 1 0.01
0x4024b0 1 0.01
0x4024b8 1 0.01
0x4024c0 1 0.01
0x4024c8 1 0.01
0x4024d0 1 0.01
0x4024d8 1 0.01
0x4024e0 1 0.01
0x4024e8 1 0.01
0x4025a0 1 0.01
0x4025a8 1 0.01
0x4025b0 1 0.01
0x4025b8 1 0.01
0x4025c0 1 0.01
0x402710 1 0.01
0x402718 1 0.01
0x402a28 1 0.01
0x402a30 1 0.01
0x402a38 1 0.01
0x402a40 1 0.01
0x402a48 1 0.01
0x402a50 1 0.01
0x402a58 1 0.01
0x402a60 1 0.01
0x402a68 1 0.01
0x402a70 1 0.01
0x402a78 1 0.01
0x402a80 1 0.01
0x402aa8 1 0.01
0x402ab0 1 0.01
0x402ae0 1 0.01
0x402ae8 1 0.01
0x402af0 1 0.01
0x402af8 1 0.01
0x402f28 2 0.03
0x402f30 2 0.03
0x402f38 2 0.03
0x402f40 2 0.03
0x402f48 2 0.03
0x402f50 2 0.03
0x402f58 2 0.03
0x402f60 2 0.03
0x402f68 2 0.03
0x402f70 2 0.03
0x402f78 2 0.03
0x402f80 2 0.03
0x402f88 2 0.03
0x402f90 2 0.03
0x402f98 2 0.03
0x402fa0 2 0.03
0x402fa8 2 0.03
0x402fb0 2 0.03
0x402fb8 2 0.03
0x402fc0 2 0.03
0x402fc8 2 0.03
0x402fd0 2 0.03
0x402fd8 2 0.03
0x402fe0 2 0.03
0x402fe8 2 0.03
0x402ff0 2 0.03
0x402ff8 2 0.03
0x403000 2 0.03
0x4031b8 2 0.03
0x4031c0 2 0.03
0x4031c8 1 0.01
0x4031d0 1 0.01
0x4031d8 1 0.01
0x4031e0 1 0.01
0x4031e8 1 0.01
0x4031f0 1 0.01
0x4031f8 1 0.01
0x403260 2 0.03
0x403268 2 0.03
0x403270 2 0.03
0x403278 2 0.03
0x4032b0 2 0.03
0x4032b8 2 0.03
0x4032c0 2 0.03
0x4032c8 2 0.03
0x4032d0 2 0.03
0x4032d8 2 0.03
0x4032e0 2 0.03
0x4032e8 2 0.03
0x4032f0 2 0.03
0x4032f8 2 0.03
0x403300 2 0.03
0x403600 2 0.03
0x403608 2 0.03
0x403610 2 0.03
0x403618 2 0.03
0x403620 2 0.03
0x403628 2 0.03
0x403630 2 0.03
0x403638 2 0.03
0x403640 2 0.03
0x403658 2 0.03
0x403660 2 0.03
0x403668 2 0.03
0x403670 2 0.03
0x403678 2 0.03
0x403680 2 0.03
0x403688 2 0.03
0x403690 2 0.03
0x403698 2 0.03
0x4036a0 2 0.03
0x4036a8 2 0.03
0x403b40 2 0.03
0x403b48 2 0.03
0x403b50 2 0.03
0x403b58 2 0.03
0x403b60 2 0.03
0x403b68 2 0.03
0x403b70 2 0.03
0x403b78 2 0.03
0x403b80 2 0.03
0x403b88 2 0.03
0x403b90 2 0.03
0x403b98 2 0.03
0x403ba0 2 0.03
0x403ba8 2 0.03
0x403bb0 2 0.03
0x403bc8 2 0.03
0x403bd0 2 0.03
0x403bd8 2 0.03
0x403be0 2 0.03
0x403be8 2 0.03
0x403bf0 2 0.03
0x403bf8 2 0.03
0x403c20 2 0.03
0x403c28 2 0.03
0x403c30 2 0.03
0x403c38 2 0.03
0x403c40 2 0.03
0x403c78 2 0.03
0x403c80 2 0.03
0x403c88 2 0.03
0x403c90 2 0.03
0x403c98 2 0.03
0x403ca0 2 0.03
0x403ca8 2 0.03
0x403cb0 2 0.03
0x403cb8 2 0.03
0x403cc0 2 0.03
0x403cc8 2 0.03
0x403cd0 2 0.03
0x403cd8 2 0.03
0x403ce0 2 0.03
0x403ce8 2 0.03
0x403cf0 2 0.03
0x403cf8 2 0.03
0x403d00 2 0.03
0x403d08 2 0.03
0x403d10 2 0.03
0x403d18 2 0.03
0x403d20 2 0.03
0x403d28 2 0.03
0x403d30 2 0.03
0x403d38 2 0.03
0x403d40 2 0.03
0x403d48 2 0.03
0x403d50 2 0.03
0x403d58 2 0.03
0x403d60 2 0.03
0x403d68 1 0.01
0x403d70 1 0.01
0x403d88 1 0.01
0x403d90 1 0.01
0x403d98 1 0.01
0x403da0 1 0.01
0x403da8 1 0.01
0x403db0 1 0.01
0x403db8 1 0.01
0x403df0 1 0.01
0x403df8 1 0.01
0x403e00 1 0.01
0x403e28 2 0.03
0x403e30 2 0.03
0x403e38 2 0.03
0x403e40 2 0.03
0x403e48 2 0.03
0x403e50 2 0.03
0x403e58 2 0.03
0x403e60 2 0.03
0x403e68 2 0.03
0x403e98 2 0.03
0x403f60 2 0.03
0x403f68 2 0.03
0x403f70 2 0.03
0x403f98 2 0.03
0x403fa0 2 0.03
0x403fb0 2 0.03
0x403fb8 2 0.03
0x403fc0 2 0.03
0x403fc8 2 0.03
0x403fd0 2 0.03
0x403fd8 2 0.03
0x404008 2 0.03
0x404010 2 0.03
0x404018 2 0.03
0x404020 2 0.03
0x404038 2 0.03
0x404040 2 0.03
0x404048 2 0.03
0x404050 2 0.03
0x404058 2 0.03
0x404060 2 0.03
0x404068 2 0.03
0x404070 2 0.03
0x404608 3 0.04
0x404610 3 0.04
0x404618 3 0.04
0x404620 3 0.04
0x404628 3 0.04
0x404630 3 0.04
0x404638 3 0.04
0x404640 3 0.04
0x404648 3 0.04
0x404650 3 0.04
0x404658 3 0.04
0x404660 3 0.04
0x404668 3 0.04
0x404670 3 0.04
0x404678 3 0.04
0x404820 2 0.03
0x404828 2 0.03
0x404830 2 0.03
0x404838 2 0.03
0x404840 2 0.03
0x404848 2 0.03
0x404cc0 3 0.04
0x404cc8 3 0.04
0x404cd0 3 0.04
0x404cd8 3 0.04
0x404cf0 3 0.04
0x404cf8 3 0.04
0x404d00 3 0.04
0x404d08 3 0.04
0x404d10 3 0.04
0x404d18 3 0.04
0x404d20 3 0.04
0x404d28 3 0.04
0x404d30 3 0.04
0x404d38 3 0.04
0x404d40 3 0.04
0x4055a0 2 0.03
0x4055a8 2 0.03
0x4055b0 2 0.03
0x4055b8 2 0.03
0x4055c0 2 0.03
0x4055c8 2 0.03
0x4055d0 2 0.03
0x4055d8 2 0.03
0x4055e0 2 0.03
0x4055e8 2 0.03
0x4055f0 2 0.03
0x4055f8 1 0.01
0x405600 1 0.01
0x405608 1 0.01
0x405610 1 0.01
0x405618 1 0.01
0x405620 1 0.01
0x405628 1 0.01
0x405630 1 0.01
0x405658 1 0.01
0x405660 1 0.01
0x4056a0 1 0.01
0x4056a8 1 0.01
0x4056b0 2 0.03
0x4056b8 2 0.03
0x4056c0 2 0.03
0x4056c8 2 0.03
0x4056d0 2 0.03
0x4057b0 2 0.03
0x4057b8 2 0.03
0x4057c0 2 0.03
0x4057c8 2 0.03
0x4057d0 2 0.03
0x405860 3 0.04
0x405868 3 0.04
0x405870 3 0.04
0x405880 3 0.04
0x405888 3 0.04
0x405890 3 0.04
0x405898 3 0.04
0x4058a0 3 0.04
0x4058a8 3 0.04
0x4058d0 1 0.01
0x4058d8 1 0.01
0x4058e0 1 0.01
0x4058e8 1 0.01
0x4058f0 1 0.01
sim_num_insn_by_pc.end_dist

ld_text_base             0x00400000 # target_name text (code) segment base
ld_text_size                  23088 # target_name text (code) size in bytes
ld_data_base             0x10000000 # target_name initialized data segment base
ld_data_size                   4096 # target_name init'ed `.data' and uninit'ed `.bss' size in bytes
ld_stack_base            0x7fffc000 # target_name stack segment base (highest address in stack)
ld_stack_size                 16384 # target_name initial stack size
ld_prog_entry            0x00400140 # target_name entry point (initial PC)
ld_environ_base          0x7fff8000 # target_name environment base address address
ld_target_big_endian              0 # target executable endian-ness, non-zero if big endian
mem.page_count                   12 # total number of pages allocated
mem.page_mem                    48k # total size of memory pages allocated
mem.ptab_misses                  12 # total first level page table misses
mem.ptab_accesses            184336 # total page table accesses
mem.ptab_miss_rate           0.0001 # first level page table miss rate

+--------------------------------------------------------------+
| effective code range:         [0, fffffff8]                  |
| effective bpred count:        0                              |
| effective sim cycles:         0                              |
| effective bpred misses:       0                              |
| effective icache misses:      0                              |
+--------------------------------------------------------------+

