sim-profile: SimpleScalar/PISA Tool Set version 3.0 of August, 2003.
Copyright (c) 1994-2003 by Todd M. Austin, Ph.D. and SimpleScalar, LLC.
All Rights Reserved. This version of SimpleScalar is licensed for academic
non-commercial use.  No portion of this work may be used by any commercial
entity, or for any commercial purpose, without the prior written permission
of SimpleScalar, LLC (info@simplescalar.com).

sim: command line: /home/sudiptac/sudiptac/Work/simplesim-3.0/sim-profile -pcstat sim_num_insn adpcm 

sim: simulation started @ Thu Aug 11 16:43:13 2011, options follow:

sim-profile: This simulator implements a functional simulator with
profiling support.  Run with the `-h' flag to see profiling options
available.

# -config                     # load configuration from a file
# -dumpconfig                 # dump configuration to a file
# -h                    false # print help message    
# -v                    false # verbose operation     
# -d                    false # enable debug message  
# -i                    false # start in Dlite debugger
-seed                       1 # random number generator seed (0 for timer seed)
# -q                    false # initialize and terminate immediately
# -chkpt               <null> # restore EIO trace execution from <fname>
# -redir:sim           <null> # redirect simulator output to file (non-interactive only)
# -redir:prog          <null> # redirect simulated program output to file
-nice                       0 # simulator scheduling priority
-max:inst                   0 # maximum number of inst's to execute
-all                    false # enable all profile options
-iclass                 false # enable instruction class profiling
-iprof                  false # enable instruction profiling
-brprof                 false # enable branch instruction profiling
-amprof                 false # enable address mode profiling
-segprof                false # enable load/store address segment profiling
-tsymprof               false # enable text symbol profiling
-taddrprof              false # enable text address profiling
-dsymprof               false # enable data symbol profiling
-internal               false # include compiler-internal symbols during symbol profiling
# -pcstat        sim_num_insn # profile stat(s) against text addr's (mult uses ok)

sim: ** starting functional simulation **

sim: ** simulation statistics **
sim_num_insn                  10238 # total number of instructions executed
sim_num_refs                   4814 # total number of loads and stores executed
sim_elapsed_time                  1 # total simulation time in seconds
sim_inst_rate            10238.0000 # simulation speed (in insts/sec)

sim_num_insn_by_pc     # total number of instructions executed (by text address)
sim_num_insn_by_pc.count = 1588
sim_num_insn_by_pc.total = 10237
sim_num_insn_by_pc.imin = 0x400140
sim_num_insn_by_pc.imax = 0x406fc0
sim_num_insn_by_pc.average =   6.4465
sim_num_insn_by_pc.std_dev =  34.0094
sim_num_insn_by_pc.overflows = 0
# pdf == prob dist fn, cdf == cumulative dist fn
#          index      count    pdf 
sim_num_insn_by_pc.start_dist
0x400140 1 0.01
0x400148 1 0.01
0x400150 1 0.01
0x400158 1 0.01
0x400160 1 0.01
0x400168 1 0.01
0x400170 1 0.01
0x400178 1 0.01
0x400180 1 0.01
0x400188 1 0.01
0x400190 1 0.01
0x400198 1 0.01
0x4001a0 1 0.01
0x4001a8 1 0.01
0x4001b0 1 0.01
0x4001b8 1 0.01
0x4001c0 1 0.01
0x4001c8 1 0.01
0x4001d0 1 0.01
0x4001d8 1 0.01
0x4001e0 1 0.01
0x4001f0 4 0.04
0x4001f8 4 0.04
0x400200 1 0.01
0x400208 4 0.04
0x400210 2 0.02
0x400218 2 0.02
0x400220 2 0.02
0x400228 2 0.02
0x400230 2 0.02
0x400238 2 0.02
0x400240 2 0.02
0x400248 2 0.02
0x400250 2 0.02
0x400258 2 0.02
0x400260 2 0.02
0x400268 2 0.02
0x400270 2 0.02
0x400278 2 0.02
0x400280 2 0.02
0x400288 2 0.02
0x400290 2 0.02
0x400298 2 0.02
0x4002a0 2 0.02
0x4002a8 2 0.02
0x4002b0 2 0.02
0x4002b8 2 0.02
0x4002c0 2 0.02
0x4002c8 20 0.20
0x4002d0 20 0.20
0x4002d8 20 0.20
0x4002e0 20 0.20
0x4002e8 20 0.20
0x4002f0 20 0.20
0x4002f8 20 0.20
0x400300 20 0.20
0x400308 20 0.20
0x400310 20 0.20
0x400318 20 0.20
0x400320 20 0.20
0x400328 20 0.20
0x400330 20 0.20
0x400338 20 0.20
0x400340 20 0.20
0x400348 20 0.20
0x400350 2 0.02
0x400358 2 0.02
0x400360 2 0.02
0x400368 2 0.02
0x400370 2 0.02
0x400378 2 0.02
0x400380 2 0.02
0x400388 2 0.02
0x400390 2 0.02
0x400398 2 0.02
0x4003a0 2 0.02
0x4003a8 2 0.02
0x4003b0 2 0.02
0x4003b8 44 0.43
0x4003c0 44 0.43
0x4003c8 44 0.43
0x4003d0 44 0.43
0x4003d8 44 0.43
0x4003e0 44 0.43
0x4003e8 44 0.43
0x4003f0 2 0.02
0x4003f8 2 0.02
0x400400 2 0.02
0x400408 2 0.02
0x400410 2 0.02
0x400418 2 0.02
0x400420 2 0.02
0x400428 2 0.02
0x400430 2 0.02
0x400438 2 0.02
0x400440 2 0.02
0x400448 2 0.02
0x400450 2 0.02
0x400458 2 0.02
0x400460 2 0.02
0x400468 2 0.02
0x400470 2 0.02
0x400478 2 0.02
0x400480 2 0.02
0x400488 2 0.02
0x400490 2 0.02
0x400498 2 0.02
0x4004a0 2 0.02
0x4004a8 2 0.02
0x4004b0 2 0.02
0x4004b8 2 0.02
0x4004c0 2 0.02
0x4004c8 2 0.02
0x4004d0 2 0.02
0x4004d8 2 0.02
0x4004e0 2 0.02
0x4004e8 2 0.02
0x4004f0 2 0.02
0x4004f8 2 0.02
0x400500 2 0.02
0x400508 2 0.02
0x400510 2 0.02
0x400518 2 0.02
0x400520 2 0.02
0x400528 2 0.02
0x400530 2 0.02
0x400538 2 0.02
0x400540 2 0.02
0x400548 2 0.02
0x400550 2 0.02
0x400558 2 0.02
0x400560 2 0.02
0x400568 2 0.02
0x400570 2 0.02
0x400578 2 0.02
0x400580 2 0.02
0x400588 2 0.02
0x400590 2 0.02
0x400598 2 0.02
0x4005a0 2 0.02
0x4005a8 2 0.02
0x4005b0 2 0.02
0x4005b8 2 0.02
0x4005c0 2 0.02
0x4005c8 2 0.02
0x4005d0 2 0.02
0x4005d8 2 0.02
0x4005e0 2 0.02
0x4005e8 2 0.02
0x4005f0 2 0.02
0x4005f8 2 0.02
0x400600 2 0.02
0x400608 2 0.02
0x400610 2 0.02
0x400618 2 0.02
0x400620 2 0.02
0x400628 2 0.02
0x400630 2 0.02
0x400638 2 0.02
0x400640 2 0.02
0x400648 2 0.02
0x400650 2 0.02
0x400658 2 0.02
0x400660 2 0.02
0x400668 2 0.02
0x400670 2 0.02
0x400678 2 0.02
0x400680 2 0.02
0x400688 2 0.02
0x400690 2 0.02
0x400698 2 0.02
0x4006a0 2 0.02
0x4006a8 2 0.02
0x4006b0 2 0.02
0x4006b8 2 0.02
0x4006c0 2 0.02
0x4006c8 2 0.02
0x4006d0 2 0.02
0x4006d8 2 0.02
0x4006e0 2 0.02
0x4006e8 2 0.02
0x4006f0 2 0.02
0x4006f8 2 0.02
0x400700 2 0.02
0x400708 2 0.02
0x400710 2 0.02
0x400718 2 0.02
0x400728 2 0.02
0x400730 2 0.02
0x400738 2 0.02
0x400740 2 0.02
0x400748 2 0.02
0x400750 2 0.02
0x400758 2 0.02
0x400760 2 0.02
0x400768 2 0.02
0x400770 2 0.02
0x400778 2 0.02
0x400780 2 0.02
0x400788 2 0.02
0x400790 2 0.02
0x4007b0 2 0.02
0x4007b8 2 0.02
0x4007c0 2 0.02
0x4007c8 2 0.02
0x4007d0 2 0.02
0x4007d8 2 0.02
0x4007e0 2 0.02
0x4007e8 2 0.02
0x4007f0 2 0.02
0x4007f8 2 0.02
0x400800 2 0.02
0x400808 2 0.02
0x400810 2 0.02
0x400818 2 0.02
0x400820 2 0.02
0x400828 2 0.02
0x400830 2 0.02
0x400838 2 0.02
0x400840 2 0.02
0x400848 2 0.02
0x400850 2 0.02
0x400858 2 0.02
0x400860 2 0.02
0x400868 2 0.02
0x400870 2 0.02
0x400878 2 0.02
0x400880 2 0.02
0x400888 2 0.02
0x400890 2 0.02
0x400898 2 0.02
0x4008a0 2 0.02
0x4008a8 2 0.02
0x4008b0 2 0.02
0x4008b8 2 0.02
0x4008c0 2 0.02
0x4008c8 2 0.02
0x4008d0 2 0.02
0x4008d8 2 0.02
0x4008e0 2 0.02
0x4008e8 2 0.02
0x4008f0 2 0.02
0x4008f8 2 0.02
0x400900 2 0.02
0x400908 2 0.02
0x400910 2 0.02
0x400918 2 0.02
0x400920 2 0.02
0x400928 2 0.02
0x400930 2 0.02
0x400938 2 0.02
0x400940 2 0.02
0x400948 2 0.02
0x400950 2 0.02
0x400958 2 0.02
0x400960 2 0.02
0x400968 2 0.02
0x400970 2 0.02
0x400978 2 0.02
0x400980 2 0.02
0x400988 2 0.02
0x400990 2 0.02
0x400998 2 0.02
0x4009a0 2 0.02
0x4009a8 2 0.02
0x4009b0 2 0.02
0x4009b8 2 0.02
0x4009c0 2 0.02
0x4009c8 2 0.02
0x4009d0 2 0.02
0x4009d8 2 0.02
0x4009e0 2 0.02
0x4009e8 2 0.02
0x4009f0 2 0.02
0x4009f8 2 0.02
0x400a00 2 0.02
0x400a08 2 0.02
0x400a10 2 0.02
0x400a18 2 0.02
0x400a20 2 0.02
0x400a28 2 0.02
0x400a30 2 0.02
0x400a38 2 0.02
0x400a40 2 0.02
0x400a48 2 0.02
0x400a50 2 0.02
0x400a58 2 0.02
0x400a60 2 0.02
0x400a68 2 0.02
0x400a70 2 0.02
0x400a78 2 0.02
0x400a80 2 0.02
0x400a88 2 0.02
0x400a90 2 0.02
0x400a98 2 0.02
0x400aa0 2 0.02
0x400aa8 2 0.02
0x400ab0 2 0.02
0x400ab8 2 0.02
0x400ac0 2 0.02
0x400ac8 2 0.02
0x400ad0 2 0.02
0x400ad8 2 0.02
0x400ae0 2 0.02
0x400ae8 2 0.02
0x400af0 2 0.02
0x400af8 2 0.02
0x400b00 2 0.02
0x400b08 2 0.02
0x400b10 2 0.02
0x400b18 2 0.02
0x400b20 2 0.02
0x400b28 2 0.02
0x400b30 2 0.02
0x400b38 2 0.02
0x400b40 2 0.02
0x400b48 2 0.02
0x400b50 2 0.02
0x400b58 2 0.02
0x400b60 2 0.02
0x400b68 2 0.02
0x400b70 2 0.02
0x400b78 2 0.02
0x400b80 2 0.02
0x400b88 2 0.02
0x400b90 2 0.02
0x400b98 2 0.02
0x400ba0 2 0.02
0x400ba8 2 0.02
0x400bb0 2 0.02
0x400bb8 2 0.02
0x400bc0 2 0.02
0x400bc8 2 0.02
0x400bd0 2 0.02
0x400bd8 2 0.02
0x400be0 2 0.02
0x400be8 2 0.02
0x400bf0 2 0.02
0x400bf8 2 0.02
0x400c00 2 0.02
0x400c08 2 0.02
0x400c10 2 0.02
0x400c18 2 0.02
0x400c20 2 0.02
0x400c28 2 0.02
0x400c30 2 0.02
0x400c38 2 0.02
0x400c40 2 0.02
0x400c48 2 0.02
0x400c50 2 0.02
0x400c58 2 0.02
0x400c60 2 0.02
0x400c68 2 0.02
0x400c70 2 0.02
0x400c78 2 0.02
0x400c80 2 0.02
0x400c88 2 0.02
0x400c90 2 0.02
0x400c98 2 0.02
0x400ca0 2 0.02
0x400ca8 2 0.02
0x400cb0 2 0.02
0x400cb8 2 0.02
0x400cc0 2 0.02
0x400cc8 2 0.02
0x400cd0 2 0.02
0x400cd8 2 0.02
0x400ce0 2 0.02
0x400ce8 2 0.02
0x400cf0 2 0.02
0x400cf8 2 0.02
0x400d00 2 0.02
0x400d08 2 0.02
0x400d10 2 0.02
0x400d18 2 0.02
0x400d20 2 0.02
0x400d28 2 0.02
0x400d30 2 0.02
0x400d38 2 0.02
0x400d40 2 0.02
0x400d48 2 0.02
0x400d50 2 0.02
0x400d58 2 0.02
0x400d60 2 0.02
0x400d68 2 0.02
0x400d70 2 0.02
0x400d78 2 0.02
0x400d80 2 0.02
0x400d88 2 0.02
0x400d90 2 0.02
0x400d98 2 0.02
0x400da0 2 0.02
0x400da8 2 0.02
0x400db0 2 0.02
0x400db8 2 0.02
0x400dc0 2 0.02
0x400dc8 2 0.02
0x400dd0 2 0.02
0x400dd8 2 0.02
0x400de0 2 0.02
0x400de8 2 0.02
0x400df0 2 0.02
0x400df8 2 0.02
0x400e00 2 0.02
0x400e08 2 0.02
0x400e10 2 0.02
0x400e18 2 0.02
0x400e20 2 0.02
0x400e28 2 0.02
0x400e30 2 0.02
0x400e38 2 0.02
0x400e40 2 0.02
0x400e48 2 0.02
0x400e50 2 0.02
0x400e58 2 0.02
0x400e60 2 0.02
0x400e68 2 0.02
0x400e70 2 0.02
0x400e78 2 0.02
0x400e80 2 0.02
0x400e88 2 0.02
0x400e90 2 0.02
0x400e98 2 0.02
0x400ea0 2 0.02
0x400ea8 2 0.02
0x400eb0 2 0.02
0x400eb8 2 0.02
0x400ec0 2 0.02
0x400ec8 2 0.02
0x400ed0 2 0.02
0x400ed8 2 0.02
0x400ee0 2 0.02
0x400ee8 2 0.02
0x400ef0 2 0.02
0x400ef8 20 0.20
0x400f00 20 0.20
0x400f08 20 0.20
0x400f10 20 0.20
0x400f18 20 0.20
0x400f20 20 0.20
0x400f28 20 0.20
0x400f30 20 0.20
0x400f38 20 0.20
0x400f40 20 0.20
0x400f48 20 0.20
0x400f50 20 0.20
0x400f58 20 0.20
0x400f60 20 0.20
0x400f68 20 0.20
0x400f70 20 0.20
0x400f78 20 0.20
0x400f80 2 0.02
0x400f88 2 0.02
0x400f90 2 0.02
0x400f98 2 0.02
0x400fa0 2 0.02
0x400fa8 2 0.02
0x400fb0 2 0.02
0x400fb8 2 0.02
0x400fc0 2 0.02
0x400fc8 2 0.02
0x400fd0 2 0.02
0x400fd8 2 0.02
0x400fe0 2 0.02
0x400fe8 2 0.02
0x400ff0 2 0.02
0x400ff8 2 0.02
0x401000 2 0.02
0x401008 20 0.20
0x401010 20 0.20
0x401018 20 0.20
0x401020 20 0.20
0x401028 20 0.20
0x401030 20 0.20
0x401038 20 0.20
0x401040 20 0.20
0x401048 20 0.20
0x401050 20 0.20
0x401058 20 0.20
0x401060 2 0.02
0x401068 2 0.02
0x401070 2 0.02
0x401078 2 0.02
0x401080 2 0.02
0x401088 2 0.02
0x401090 2 0.02
0x401098 2 0.02
0x4010a0 2 0.02
0x4010a8 1 0.01
0x4010b0 1 0.01
0x4010b8 1 0.01
0x4010c0 1 0.01
0x4010c8 1 0.01
0x4010d0 1 0.01
0x4010d8 1 0.01
0x4010e0 1 0.01
0x4010e8 1 0.01
0x4010f0 1 0.01
0x4010f8 1 0.01
0x401100 1 0.01
0x401108 1 0.01
0x401110 1 0.01
0x401118 1 0.01
0x401120 1 0.01
0x401128 1 0.01
0x401130 1 0.01
0x401138 1 0.01
0x401140 1 0.01
0x401148 1 0.01
0x401150 1 0.01
0x401158 1 0.01
0x401160 1 0.01
0x401168 1 0.01
0x401170 1 0.01
0x401178 1 0.01
0x401180 1 0.01
0x401188 1 0.01
0x401190 1 0.01
0x401198 1 0.01
0x4011a0 1 0.01
0x4011a8 1 0.01
0x4011b0 1 0.01
0x4011b8 1 0.01
0x4011c0 1 0.01
0x4011c8 1 0.01
0x4011d0 1 0.01
0x4011d8 1 0.01
0x4011e0 1 0.01
0x4011e8 1 0.01
0x4011f0 1 0.01
0x4011f8 1 0.01
0x401200 6 0.06
0x401208 6 0.06
0x401210 6 0.06
0x401218 6 0.06
0x401220 6 0.06
0x401228 6 0.06
0x401230 6 0.06
0x401238 6 0.06
0x401240 6 0.06
0x401248 6 0.06
0x401250 6 0.06
0x401258 1 0.01
0x401260 1 0.01
0x401268 1 0.01
0x401270 1 0.01
0x401278 1 0.01
0x401280 1 0.01
0x401288 1 0.01
0x401290 1 0.01
0x401298 1 0.01
0x4012a0 6 0.06
0x4012a8 6 0.06
0x4012b0 6 0.06
0x4012b8 6 0.06
0x4012c0 6 0.06
0x4012c8 6 0.06
0x4012d0 6 0.06
0x4012d8 6 0.06
0x4012e0 6 0.06
0x4012e8 6 0.06
0x4012f0 6 0.06
0x4012f8 1 0.01
0x401300 1 0.01
0x401308 1 0.01
0x401310 23 0.22
0x401318 23 0.22
0x401320 23 0.22
0x401328 23 0.22
0x401330 1 0.01
0x401338 1 0.01
0x401340 1 0.01
0x401348 1 0.01
0x401350 1 0.01
0x401358 11 0.11
0x401360 11 0.11
0x401368 11 0.11
0x401370 11 0.11
0x401378 11 0.11
0x401380 11 0.11
0x401388 11 0.11
0x401390 1 0.01
0x401398 8 0.08
0x4013a0 8 0.08
0x4013a8 8 0.08
0x4013b0 8 0.08
0x4013b8 8 0.08
0x4013c0 8 0.08
0x4013c8 8 0.08
0x4013d0 40 0.39
0x4013d8 40 0.39
0x4013e0 40 0.39
0x4013e8 40 0.39
0x4013f0 40 0.39
0x4013f8 40 0.39
0x401400 40 0.39
0x401408 40 0.39
0x401410 40 0.39
0x401418 40 0.39
0x401420 8 0.08
0x401428 8 0.08
0x401430 8 0.08
0x401438 8 0.08
0x401440 8 0.08
0x401448 8 0.08
0x401450 8 0.08
0x401458 8 0.08
0x401460 8 0.08
0x401468 8 0.08
0x401470 8 0.08
0x401478 2 0.02
0x401480 2 0.02
0x401488 2 0.02
0x401490 2 0.02
0x401498 2 0.02
0x4014a0 2 0.02
0x4014a8 2 0.02
0x4014b0 2 0.02
0x4014b8 2 0.02
0x4014c0 2 0.02
0x4014c8 2 0.02
0x4014d0 5 0.05
0x4014d8 5 0.05
0x4014e0 5 0.05
0x4014e8 5 0.05
0x4014f0 5 0.05
0x4014f8 5 0.05
0x401500 3 0.03
0x401508 3 0.03
0x401510 3 0.03
0x401518 3 0.03
0x401520 2 0.02
0x401528 1 0.01
0x401530 1 0.01
0x401538 1 0.01
0x401540 1 0.01
0x401548 1 0.01
0x401550 1 0.01
0x401558 1 0.01
0x401560 1 0.01
0x401568 1 0.01
0x401570 2 0.02
0x401578 2 0.02
0x401580 2 0.02
0x401588 2 0.02
0x401590 2 0.02
0x401598 4 0.04
0x4015a0 4 0.04
0x4015a8 4 0.04
0x4015b0 4 0.04
0x4015b8 4 0.04
0x4015c0 4 0.04
0x4015c8 4 0.04
0x4015d0 4 0.04
0x4015d8 4 0.04
0x4015e0 4 0.04
0x4015e8 4 0.04
0x4015f0 4 0.04
0x4015f8 4 0.04
0x401608 4 0.04
0x401610 4 0.04
0x401618 8 0.08
0x401620 8 0.08
0x401628 8 0.08
0x401630 8 0.08
0x401638 8 0.08
0x401640 8 0.08
0x401648 8 0.08
0x401650 8 0.08
0x401658 8 0.08
0x401660 8 0.08
0x401668 8 0.08
0x401670 8 0.08
0x401678 8 0.08
0x401680 8 0.08
0x401688 6 0.06
0x401690 36 0.35
0x401698 36 0.35
0x4016a0 36 0.35
0x4016a8 36 0.35
0x4016b0 36 0.35
0x4016b8 36 0.35
0x4016c0 36 0.35
0x4016c8 36 0.35
0x4016d0 36 0.35
0x4016d8 6 0.06
0x4016e0 2 0.02
0x4016e8 2 0.02
0x4016f0 12 0.12
0x4016f8 12 0.12
0x401700 12 0.12
0x401708 12 0.12
0x401710 12 0.12
0x401718 12 0.12
0x401720 12 0.12
0x401728 12 0.12
0x401730 12 0.12
0x401738 12 0.12
0x401740 12 0.12
0x401748 12 0.12
0x401750 12 0.12
0x401758 12 0.12
0x401760 12 0.12
0x401768 12 0.12
0x401770 12 0.12
0x401778 8 0.08
0x401780 8 0.08
0x401788 8 0.08
0x401790 8 0.08
0x401798 8 0.08
0x4017a0 8 0.08
0x4017a8 8 0.08
0x4017b0 8 0.08
0x4017b8 8 0.08
0x4017c0 8 0.08
0x4017c8 8 0.08
0x4017d0 8 0.08
0x4017d8 8 0.08
0x4017e0 8 0.08
0x4017e8 8 0.08
0x4017f0 8 0.08
0x4017f8 8 0.08
0x401800 8 0.08
0x401808 8 0.08
0x401810 8 0.08
0x401818 8 0.08
0x401820 8 0.08
0x401830 8 0.08
0x401838 8 0.08
0x401840 8 0.08
0x401848 8 0.08
0x401850 8 0.08
0x401858 8 0.08
0x401868 8 0.08
0x401870 8 0.08
0x401880 8 0.08
0x401888 8 0.08
0x401890 8 0.08
0x401898 8 0.08
0x4018a0 8 0.08
0x4018a8 8 0.08
0x4018b0 8 0.08
0x4018b8 8 0.08
0x4018c0 8 0.08
0x4018c8 8 0.08
0x4018d8 8 0.08
0x4018e0 8 0.08
0x4018e8 8 0.08
0x4018f0 8 0.08
0x401900 8 0.08
0x401908 8 0.08
0x401910 8 0.08
0x401920 8 0.08
0x401928 8 0.08
0x401930 4 0.04
0x401938 4 0.04
0x401940 4 0.04
0x401948 4 0.04
0x401950 4 0.04
0x401958 4 0.04
0x401960 4 0.04
0x401968 4 0.04
0x401970 4 0.04
0x401978 4 0.04
0x401980 4 0.04
0x401988 4 0.04
0x401998 4 0.04
0x4019a0 4 0.04
0x4019a8 1 0.01
0x4019b0 1 0.01
0x4019b8 1 0.01
0x4019c0 1 0.01
0x4019c8 1 0.01
0x4019d0 1 0.01
0x4019d8 1 0.01
0x4019e0 1 0.01
0x4019e8 1 0.01
0x4019f0 1 0.01
0x4019f8 1 0.01
0x401a00 3 0.03
0x401a08 3 0.03
0x401a10 3 0.03
0x401a18 3 0.03
0x401a20 1 0.01
0x401a28 1 0.01
0x401a30 1 0.01
0x401a38 1 0.01
0x401a40 1 0.01
0x401a48 1 0.01
0x401a50 1 0.01
0x401a58 2 0.02
0x401a60 2 0.02
0x401a68 2 0.02
0x401a70 2 0.02
0x401a78 2 0.02
0x401a80 2 0.02
0x401a88 2 0.02
0x401a90 2 0.02
0x401a98 2 0.02
0x401aa0 2 0.02
0x401aa8 2 0.02
0x401ab0 2 0.02
0x401ab8 2 0.02
0x401ac0 2 0.02
0x401ac8 1 0.01
0x401ad0 1 0.01
0x401ad8 1 0.01
0x401ae0 1 0.01
0x401ae8 1 0.01
0x401af0 1 0.01
0x401af8 1 0.01
0x401b00 2 0.02
0x401b08 2 0.02
0x401b10 2 0.02
0x401b18 2 0.02
0x401b20 2 0.02
0x401b28 2 0.02
0x401b30 2 0.02
0x401b38 2 0.02
0x401b40 2 0.02
0x401b48 2 0.02
0x401b50 2 0.02
0x401b58 2 0.02
0x401b60 2 0.02
0x401b68 2 0.02
0x401b70 2 0.02
0x401b78 2 0.02
0x401b80 1 0.01
0x401b88 1 0.01
0x401b90 1 0.01
0x401b98 1 0.01
0x401ba0 1 0.01
0x401ba8 1 0.01
0x401bb0 1 0.01
0x401bb8 1 0.01
0x401bc0 1 0.01
0x401bc8 1 0.01
0x401bd0 1 0.01
0x401bd8 1 0.01
0x401be0 1 0.01
0x401be8 1 0.01
0x401bf0 1 0.01
0x401c00 1 0.01
0x401c08 1 0.01
0x401c10 1 0.01
0x401c18 1 0.01
0x401c20 1 0.01
0x401c28 1 0.01
0x401c30 1 0.01
0x401c38 1 0.01
0x401c40 1 0.01
0x401c48 1 0.01
0x401c50 1 0.01
0x401c58 1 0.01
0x401c60 1 0.01
0x401c68 1 0.01
0x401c70 1 0.01
0x401c78 1 0.01
0x401c80 1 0.01
0x401c88 1 0.01
0x401c90 1 0.01
0x401c98 1 0.01
0x401ca0 1 0.01
0x401ca8 1 0.01
0x401cb0 1 0.01
0x401d60 1 0.01
0x401d68 1 0.01
0x401d70 1 0.01
0x401d78 1 0.01
0x401d80 1 0.01
0x401dd0 1 0.01
0x401dd8 1 0.01
0x401de0 1 0.01
0x401de8 1 0.01
0x401df0 1 0.01
0x401df8 1 0.01
0x401e00 1 0.01
0x401e08 1 0.01
0x401e10 1 0.01
0x401e18 1 0.01
0x401e20 1 0.01
0x401e28 1 0.01
0x401e38 1 0.01
0x401e40 1 0.01
0x401e48 1 0.01
0x401e50 1 0.01
0x401e58 1 0.01
0x402070 1 0.01
0x402078 1 0.01
0x402080 1 0.01
0x402088 1 0.01
0x402090 1 0.01
0x402098 1 0.01
0x4020a0 1 0.01
0x4020c0 1 0.01
0x4020e0 1 0.01
0x4020e8 1 0.01
0x4020f0 1 0.01
0x4020f8 1 0.01
0x402100 1 0.01
0x402108 1 0.01
0x402128 1 0.01
0x402130 1 0.01
0x402138 1 0.01
0x402140 1 0.01
0x402160 1 0.01
0x402168 1 0.01
0x402170 1 0.01
0x402178 1 0.01
0x402180 1 0.01
0x402188 1 0.01
0x402190 1 0.01
0x402198 1 0.01
0x4021a0 1 0.01
0x4021a8 1 0.01
0x4021b0 1 0.01
0x4021b8 1 0.01
0x4021c0 1 0.01
0x4021c8 1 0.01
0x4021d0 1 0.01
0x4021d8 1 0.01
0x4021e0 1 0.01
0x4021e8 1 0.01
0x4021f0 1 0.01
0x4021f8 1 0.01
0x402200 1 0.01
0x402208 1 0.01
0x402210 1 0.01
0x402218 1 0.01
0x402228 1 0.01
0x402230 1 0.01
0x402238 1 0.01
0x402240 1 0.01
0x402248 1 0.01
0x402250 1 0.01
0x402258 1 0.01
0x402260 1 0.01
0x402268 1 0.01
0x402270 1 0.01
0x402278 1 0.01
0x402280 1 0.01
0x402288 1 0.01
0x402290 1 0.01
0x402298 1 0.01
0x4022a0 1 0.01
0x4022a8 1 0.01
0x4022b0 1 0.01
0x4022b8 1 0.01
0x4022c0 1 0.01
0x4022c8 1 0.01
0x4022d0 1 0.01
0x4022d8 1 0.01
0x4022e0 1 0.01
0x4022e8 1 0.01
0x4022f8 1 0.01
0x402300 1 0.01
0x402308 1 0.01
0x402310 1 0.01
0x402318 1 0.01
0x402320 1 0.01
0x402328 1 0.01
0x402330 1 0.01
0x402338 1 0.01
0x402340 1 0.01
0x402348 1 0.01
0x402350 1 0.01
0x402358 1 0.01
0x402360 1 0.01
0x402368 1 0.01
0x402370 1 0.01
0x402378 1 0.01
0x4023a8 1 0.01
0x4023b0 1 0.01
0x4023c0 1 0.01
0x4023c8 1 0.01
0x4023e0 1 0.01
0x4023e8 1 0.01
0x4023f0 1 0.01
0x4023f8 1 0.01
0x402408 1 0.01
0x402410 1 0.01
0x402418 1 0.01
0x402420 1 0.01
0x402428 1 0.01
0x4026b0 1 0.01
0x4026b8 1 0.01
0x4026c0 1 0.01
0x4026c8 1 0.01
0x4026d8 1 0.01
0x4026e0 1 0.01
0x4026e8 1 0.01
0x4026f0 1 0.01
0x4026f8 1 0.01
0x402700 1 0.01
0x402708 1 0.01
0x402710 1 0.01
0x402718 1 0.01
0x402720 1 0.01
0x402728 1 0.01
0x402730 1 0.01
0x402738 1 0.01
0x402740 1 0.01
0x402748 1 0.01
0x402750 1 0.01
0x402758 1 0.01
0x402760 1 0.01
0x402768 1 0.01
0x402770 1 0.01
0x402778 1 0.01
0x402780 1 0.01
0x402798 1 0.01
0x4027a0 1 0.01
0x4027a8 1 0.01
0x4027b0 1 0.01
0x4027b8 1 0.01
0x4027c0 1 0.01
0x4027d0 1 0.01
0x4027d8 1 0.01
0x402b70 1 0.01
0x402b78 1 0.01
0x402b80 1 0.01
0x402b88 1 0.01
0x402b90 1 0.01
0x402b98 1 0.01
0x402ba0 1 0.01
0x402ba8 1 0.01
0x402bb0 1 0.01
0x402bb8 1 0.01
0x402bc0 1 0.01
0x402bc8 1 0.01
0x402bd0 1 0.01
0x402bd8 1 0.01
0x402be0 1 0.01
0x402be8 1 0.01
0x402bf0 1 0.01
0x402bf8 1 0.01
0x402c00 1 0.01
0x402c08 1 0.01
0x402c10 1 0.01
0x402c18 1 0.01
0x402c20 1 0.01
0x402c28 1 0.01
0x402c30 1 0.01
0x402c38 1 0.01
0x402d20 1 0.01
0x402d28 1 0.01
0x402d30 1 0.01
0x402d38 1 0.01
0x402d40 1 0.01
0x402d48 1 0.01
0x402d50 1 0.01
0x402d60 1 0.01
0x402d68 1 0.01
0x402d70 1 0.01
0x402d78 1 0.01
0x402d80 1 0.01
0x402d88 1 0.01
0x402d90 1 0.01
0x402d98 1 0.01
0x402da0 1 0.01
0x402da8 1 0.01
0x402db0 1 0.01
0x402db8 1 0.01
0x402dc0 1 0.01
0x402dc8 1 0.01
0x402dd0 1 0.01
0x402dd8 1 0.01
0x402de0 1 0.01
0x403078 1 0.01
0x403080 1 0.01
0x403088 1 0.01
0x403090 1 0.01
0x403098 1 0.01
0x4030a0 1 0.01
0x4030a8 1 0.01
0x4030b0 1 0.01
0x4030c0 4 0.04
0x4030c8 4 0.04
0x4030d0 4 0.04
0x4030d8 4 0.04
0x4030e0 4 0.04
0x4030e8 4 0.04
0x4030f0 4 0.04
0x4030f8 1 0.01
0x403100 1 0.01
0x403108 1 0.01
0x403110 1 0.01
0x403118 1 0.01
0x403120 1 0.01
0x403128 3 0.03
0x403130 3 0.03
0x403148 3 0.03
0x403150 3 0.03
0x403158 3 0.03
0x403160 3 0.03
0x403168 3 0.03
0x403170 3 0.03
0x403178 1 0.01
0x403180 1 0.01
0x403188 3 0.03
0x403190 3 0.03
0x403198 3 0.03
0x4031a0 3 0.03
0x4031b8 3 0.03
0x4031c0 3 0.03
0x4031c8 3 0.03
0x4031d0 3 0.03
0x4031f8 3 0.03
0x403200 3 0.03
0x403208 3 0.03
0x403210 2 0.02
0x403218 2 0.02
0x403220 2 0.02
0x403228 2 0.02
0x403230 2 0.02
0x403248 3 0.03
0x403250 3 0.03
0x403258 1 0.01
0x403260 1 0.01
0x403268 1 0.01
0x403270 1 0.01
0x403278 3 0.03
0x403280 3 0.03
0x403288 2 0.02
0x403290 2 0.02
0x403298 2 0.02
0x4032a0 2 0.02
0x4032a8 1 0.01
0x4032b0 1 0.01
0x4032b8 1 0.01
0x4032c0 1 0.01
0x4032c8 1 0.01
0x4032e8 1 0.01
0x4032f0 3 0.03
0x4032f8 3 0.03
0x403300 3 0.03
0x403308 4 0.04
0x403310 4 0.04
0x403318 4 0.04
0x403320 4 0.04
0x403328 4 0.04
0x403330 4 0.04
0x403360 1 0.01
0x403368 1 0.01
0x403370 1 0.01
0x403378 1 0.01
0x4033b0 1 0.01
0x4033b8 1 0.01
0x4033c0 1 0.01
0x4033c8 1 0.01
0x4033d0 1 0.01
0x4033d8 1 0.01
0x4033e0 2 0.02
0x4033e8 2 0.02
0x4033f0 2 0.02
0x4033f8 2 0.02
0x403400 2 0.02
0x403408 2 0.02
0x403410 2 0.02
0x403418 2 0.02
0x403420 1 0.01
0x403428 1 0.01
0x403430 1 0.01
0x403438 1 0.01
0x403440 1 0.01
0x403448 1 0.01
0x403450 1 0.01
0x403458 1 0.01
0x403460 1 0.01
0x403468 1 0.01
0x403470 1 0.01
0x403478 1 0.01
0x403480 1 0.01
0x403488 1 0.01
0x4034e8 1 0.01
0x4034f0 1 0.01
0x4034f8 1 0.01
0x403500 3 0.03
0x403508 3 0.03
0x403510 3 0.03
0x403518 3 0.03
0x403520 3 0.03
0x403528 3 0.03
0x403530 3 0.03
0x403538 3 0.03
0x403540 3 0.03
0x403548 3 0.03
0x403550 4 0.04
0x403558 4 0.04
0x403560 4 0.04
0x403568 4 0.04
0x403570 4 0.04
0x403578 4 0.04
0x403580 4 0.04
0x403588 4 0.04
0x403590 4 0.04
0x403598 4 0.04
0x4035c8 4 0.04
0x4035d0 4 0.04
0x4035d8 4 0.04
0x4035e0 390 3.81
0x4035e8 390 3.81
0x4035f0 390 3.81
0x4035f8 390 3.81
0x403600 390 3.81
0x403608 390 3.81
0x403610 390 3.81
0x403618 390 3.81
0x403620 390 3.81
0x403628 390 3.81
0x403630 390 3.81
0x403638 390 3.81
0x403640 4 0.04
0x403648 4 0.04
0x403650 4 0.04
0x403658 12 0.12
0x403660 12 0.12
0x403668 12 0.12
0x403670 12 0.12
0x403678 4 0.04
0x403680 4 0.04
0x4036a8 4 0.04
0x4036b0 4 0.04
0x403880 1 0.01
0x403888 1 0.01
0x403890 1 0.01
0x403898 1 0.01
0x4038a0 1 0.01
0x4038a8 1 0.01
0x4038b0 1 0.01
0x4038b8 1 0.01
0x4038c0 1 0.01
0x4038c8 1 0.01
0x4038d8 1 0.01
0x4038e0 1 0.01
0x4038e8 1 0.01
0x4038f0 1 0.01
0x4038f8 1 0.01
0x403900 1 0.01
0x403908 1 0.01
0x403910 1 0.01
0x403918 1 0.01
0x403920 1 0.01
0x403928 1 0.01
0x403930 1 0.01
0x403938 1 0.01
0x403940 1 0.01
0x403948 1 0.01
0x403950 1 0.01
0x403958 1 0.01
0x403960 1 0.01
0x403968 1 0.01
0x403970 1 0.01
0x403978 1 0.01
0x403980 1 0.01
0x403988 1 0.01
0x403990 1 0.01
0x403998 1 0.01
0x4039e8 1 0.01
0x4039f0 1 0.01
0x4039f8 1 0.01
0x403a00 1 0.01
0x403a08 1 0.01
0x403a10 1 0.01
0x403a18 1 0.01
0x403a30 1 0.01
0x403a38 1 0.01
0x403a40 1 0.01
0x403a48 1 0.01
0x403a50 1 0.01
0x403a58 1 0.01
0x403a60 1 0.01
0x403a68 1 0.01
0x403a70 1 0.01
0x403a78 1 0.01
0x403a80 1 0.01
0x403a88 1 0.01
0x403a90 1 0.01
0x403ae0 1 0.01
0x403ae8 1 0.01
0x403af0 1 0.01
0x403af8 1 0.01
0x403b00 1 0.01
0x403b08 1 0.01
0x403b10 1 0.01
0x403b18 1 0.01
0x403b20 1 0.01
0x403b28 1 0.01
0x403b30 1 0.01
0x403b38 1 0.01
0x403b40 1 0.01
0x403b48 1 0.01
0x403b50 1 0.01
0x403b58 1 0.01
0x403b60 1 0.01
0x403b68 1 0.01
0x403b70 1 0.01
0x403b78 1 0.01
0x403b80 1 0.01
0x403b88 1 0.01
0x403b90 1 0.01
0x403b98 1 0.01
0x403ba0 1 0.01
0x403ba8 1 0.01
0x403bb0 1 0.01
0x403bb8 1 0.01
0x403c70 1 0.01
0x403c78 1 0.01
0x403c80 1 0.01
0x403c88 1 0.01
0x403c90 1 0.01
0x403de0 1 0.01
0x403de8 1 0.01
0x4040f8 1 0.01
0x404100 1 0.01
0x404108 1 0.01
0x404110 1 0.01
0x404118 1 0.01
0x404120 1 0.01
0x404128 1 0.01
0x404130 1 0.01
0x404138 1 0.01
0x404140 1 0.01
0x404148 1 0.01
0x404150 1 0.01
0x404178 1 0.01
0x404180 1 0.01
0x4041b0 1 0.01
0x4041b8 1 0.01
0x4041c0 1 0.01
0x4041c8 1 0.01
0x4045f8 2 0.02
0x404600 2 0.02
0x404608 2 0.02
0x404610 2 0.02
0x404618 2 0.02
0x404620 2 0.02
0x404628 2 0.02
0x404630 2 0.02
0x404638 2 0.02
0x404640 2 0.02
0x404648 2 0.02
0x404650 2 0.02
0x404658 2 0.02
0x404660 2 0.02
0x404668 2 0.02
0x404670 2 0.02
0x404678 2 0.02
0x404680 2 0.02
0x404688 2 0.02
0x404690 2 0.02
0x404698 2 0.02
0x4046a0 2 0.02
0x4046a8 2 0.02
0x4046b0 2 0.02
0x4046b8 2 0.02
0x4046c0 2 0.02
0x4046c8 2 0.02
0x4046d0 2 0.02
0x404888 2 0.02
0x404890 2 0.02
0x404898 1 0.01
0x4048a0 1 0.01
0x4048a8 1 0.01
0x4048b0 1 0.01
0x4048b8 1 0.01
0x4048c0 1 0.01
0x4048c8 1 0.01
0x404930 2 0.02
0x404938 2 0.02
0x404940 2 0.02
0x404948 2 0.02
0x404980 2 0.02
0x404988 2 0.02
0x404990 2 0.02
0x404998 2 0.02
0x4049a0 2 0.02
0x4049a8 2 0.02
0x4049b0 2 0.02
0x4049b8 2 0.02
0x4049c0 2 0.02
0x4049c8 2 0.02
0x4049d0 2 0.02
0x404cd0 2 0.02
0x404cd8 2 0.02
0x404ce0 2 0.02
0x404ce8 2 0.02
0x404cf0 2 0.02
0x404cf8 2 0.02
0x404d00 2 0.02
0x404d08 2 0.02
0x404d10 2 0.02
0x404d28 2 0.02
0x404d30 2 0.02
0x404d38 2 0.02
0x404d40 2 0.02
0x404d48 2 0.02
0x404d50 2 0.02
0x404d58 2 0.02
0x404d60 2 0.02
0x404d68 2 0.02
0x404d70 2 0.02
0x404d78 2 0.02
0x405210 2 0.02
0x405218 2 0.02
0x405220 2 0.02
0x405228 2 0.02
0x405230 2 0.02
0x405238 2 0.02
0x405240 2 0.02
0x405248 2 0.02
0x405250 2 0.02
0x405258 2 0.02
0x405260 2 0.02
0x405268 2 0.02
0x405270 2 0.02
0x405278 2 0.02
0x405280 2 0.02
0x405298 2 0.02
0x4052a0 2 0.02
0x4052a8 2 0.02
0x4052b0 2 0.02
0x4052b8 2 0.02
0x4052c0 2 0.02
0x4052c8 2 0.02
0x4052f0 2 0.02
0x4052f8 2 0.02
0x405300 2 0.02
0x405308 2 0.02
0x405310 2 0.02
0x405348 2 0.02
0x405350 2 0.02
0x405358 2 0.02
0x405360 2 0.02
0x405368 2 0.02
0x405370 2 0.02
0x405378 2 0.02
0x405380 2 0.02
0x405388 2 0.02
0x405390 2 0.02
0x405398 2 0.02
0x4053a0 2 0.02
0x4053a8 2 0.02
0x4053b0 2 0.02
0x4053b8 2 0.02
0x4053c0 2 0.02
0x4053c8 2 0.02
0x4053d0 2 0.02
0x4053d8 2 0.02
0x4053e0 2 0.02
0x4053e8 2 0.02
0x4053f0 2 0.02
0x4053f8 2 0.02
0x405400 2 0.02
0x405408 2 0.02
0x405410 2 0.02
0x405418 2 0.02
0x405420 2 0.02
0x405428 2 0.02
0x405430 2 0.02
0x405438 1 0.01
0x405440 1 0.01
0x405458 1 0.01
0x405460 1 0.01
0x405468 1 0.01
0x405470 1 0.01
0x405478 1 0.01
0x405480 1 0.01
0x405488 1 0.01
0x4054c0 1 0.01
0x4054c8 1 0.01
0x4054d0 1 0.01
0x4054f8 2 0.02
0x405500 2 0.02
0x405508 2 0.02
0x405510 2 0.02
0x405518 2 0.02
0x405520 2 0.02
0x405528 2 0.02
0x405530 2 0.02
0x405538 2 0.02
0x405568 2 0.02
0x405630 2 0.02
0x405638 2 0.02
0x405640 2 0.02
0x405668 2 0.02
0x405670 2 0.02
0x405680 2 0.02
0x405688 2 0.02
0x405690 2 0.02
0x405698 2 0.02
0x4056a0 2 0.02
0x4056a8 2 0.02
0x4056d8 2 0.02
0x4056e0 2 0.02
0x4056e8 2 0.02
0x4056f0 2 0.02
0x405708 2 0.02
0x405710 2 0.02
0x405718 2 0.02
0x405720 2 0.02
0x405728 2 0.02
0x405730 2 0.02
0x405738 2 0.02
0x405740 2 0.02
0x405cd8 3 0.03
0x405ce0 3 0.03
0x405ce8 3 0.03
0x405cf0 3 0.03
0x405cf8 3 0.03
0x405d00 3 0.03
0x405d08 3 0.03
0x405d10 3 0.03
0x405d18 3 0.03
0x405d20 3 0.03
0x405d28 3 0.03
0x405d30 3 0.03
0x405d38 3 0.03
0x405d40 3 0.03
0x405d48 3 0.03
0x405ef0 2 0.02
0x405ef8 2 0.02
0x405f00 2 0.02
0x405f08 2 0.02
0x405f10 2 0.02
0x405f18 2 0.02
0x406390 3 0.03
0x406398 3 0.03
0x4063a0 3 0.03
0x4063a8 3 0.03
0x4063c0 3 0.03
0x4063c8 3 0.03
0x4063d0 3 0.03
0x4063d8 3 0.03
0x4063e0 3 0.03
0x4063e8 3 0.03
0x4063f0 3 0.03
0x4063f8 3 0.03
0x406400 3 0.03
0x406408 3 0.03
0x406410 3 0.03
0x406c70 2 0.02
0x406c78 2 0.02
0x406c80 2 0.02
0x406c88 2 0.02
0x406c90 2 0.02
0x406c98 2 0.02
0x406ca0 2 0.02
0x406ca8 2 0.02
0x406cb0 2 0.02
0x406cb8 2 0.02
0x406cc0 2 0.02
0x406cc8 1 0.01
0x406cd0 1 0.01
0x406cd8 1 0.01
0x406ce0 1 0.01
0x406ce8 1 0.01
0x406cf0 1 0.01
0x406cf8 1 0.01
0x406d00 1 0.01
0x406d28 1 0.01
0x406d30 1 0.01
0x406d70 1 0.01
0x406d78 1 0.01
0x406d80 2 0.02
0x406d88 2 0.02
0x406d90 2 0.02
0x406d98 2 0.02
0x406da0 2 0.02
0x406e80 2 0.02
0x406e88 2 0.02
0x406e90 2 0.02
0x406e98 2 0.02
0x406ea0 2 0.02
0x406f30 3 0.03
0x406f38 3 0.03
0x406f40 3 0.03
0x406f50 3 0.03
0x406f58 3 0.03
0x406f60 3 0.03
0x406f68 3 0.03
0x406f70 3 0.03
0x406f78 3 0.03
0x406fa0 1 0.01
0x406fa8 1 0.01
0x406fb0 1 0.01
0x406fb8 1 0.01
0x406fc0 1 0.01
sim_num_insn_by_pc.end_dist

ld_text_base             0x00400000 # program text (code) segment base
ld_text_size                  28928 # program text (code) size in bytes
ld_data_base             0x10000000 # program initialized data segment base
ld_data_size                   4096 # program init'ed `.data' and uninit'ed `.bss' size in bytes
ld_stack_base            0x7fffc000 # program stack segment base (highest address in stack)
ld_stack_size                 16384 # program initial stack size
ld_prog_entry            0x00400140 # program entry point (initial PC)
ld_environ_base          0x7fff8000 # program environment base address address
ld_target_big_endian              0 # target executable endian-ness, non-zero if big endian
mem.page_count                   14 # total number of pages allocated
mem.page_mem                    56k # total size of memory pages allocated
mem.ptab_misses                  14 # total first level page table misses
mem.ptab_accesses            233478 # total page table accesses
mem.ptab_miss_rate           0.0001 # first level page table miss rate

+--------------------------------------------------------------+
| effective code range:         [0, fffffff8]                  |
| effective bpred count:        0                              |
| effective sim cycles:         0                              |
| effective bpred misses:       0                              |
| effective icache misses:      0                              |
+--------------------------------------------------------------+

