sim-profile: SimpleScalar/PISA Tool Set version 3.0 of August, 2003.
Copyright (c) 1994-2003 by Todd M. Austin, Ph.D. and SimpleScalar, LLC.
All Rights Reserved. This version of SimpleScalar is licensed for academic
non-commercial use.  No portion of this work may be used by any commercial
entity, or for any commercial purpose, without the prior written permission
of SimpleScalar, LLC (info@simplescalar.com).

sim: command line: /home/sudiptac/sudiptac/Work/simplesim-3.0/sim-profile -pcstat sim_num_insn ns 

sim: simulation started @ Wed Aug 10 19:18:10 2011, options follow:

sim-profile: This simulator implements a functional simulator with
profiling support.  Run with the `-h' flag to see profiling options
available.

# -config                     # load configuration from a file
# -dumpconfig                 # dump configuration to a file
# -h                    false # print help message    
# -v                    false # verbose operation     
# -d                    false # enable debug message  
# -i                    false # start in Dlite debugger
-seed                       1 # random number generator seed (0 for timer seed)
# -q                    false # initialize and terminate immediately
# -chkpt               <null> # restore EIO trace execution from <fname>
# -redir:sim           <null> # redirect simulator output to file (non-interactive only)
# -redir:prog          <null> # redirect simulated program output to file
-nice                       0 # simulator scheduling priority
-max:inst                   0 # maximum number of inst's to execute
-all                    false # enable all profile options
-iclass                 false # enable instruction class profiling
-iprof                  false # enable instruction profiling
-brprof                 false # enable branch instruction profiling
-amprof                 false # enable address mode profiling
-segprof                false # enable load/store address segment profiling
-tsymprof               false # enable text symbol profiling
-taddrprof              false # enable text address profiling
-dsymprof               false # enable data symbol profiling
-internal               false # include compiler-internal symbols during symbol profiling
# -pcstat        sim_num_insn # profile stat(s) against text addr's (mult uses ok)

sim: ** starting functional simulation **

sim: ** simulation statistics **
sim_num_insn                  11868 # total number of instructions executed
sim_num_refs                   4216 # total number of loads and stores executed
sim_elapsed_time                  1 # total simulation time in seconds
sim_inst_rate            11868.0000 # simulation speed (in insts/sec)

sim_num_insn_by_pc     # total number of instructions executed (by text address)
sim_num_insn_by_pc.count = 811
sim_num_insn_by_pc.total = 11867
sim_num_insn_by_pc.imin = 0x400140
sim_num_insn_by_pc.imax = 0x405740
sim_num_insn_by_pc.average =  14.6326
sim_num_insn_by_pc.std_dev =  75.0698
sim_num_insn_by_pc.overflows = 0
# pdf == prob dist fn, cdf == cumulative dist fn
#          index      count    pdf 
sim_num_insn_by_pc.start_dist
0x400140 1 0.01
0x400148 1 0.01
0x400150 1 0.01
0x400158 1 0.01
0x400160 1 0.01
0x400168 1 0.01
0x400170 1 0.01
0x400178 1 0.01
0x400180 1 0.01
0x400188 1 0.01
0x400190 1 0.01
0x400198 1 0.01
0x4001a0 1 0.01
0x4001a8 1 0.01
0x4001b0 1 0.01
0x4001b8 1 0.01
0x4001c0 1 0.01
0x4001c8 1 0.01
0x4001d0 1 0.01
0x4001d8 1 0.01
0x4001e0 1 0.01
0x4001f0 1 0.01
0x4001f8 1 0.01
0x400200 1 0.01
0x400208 1 0.01
0x400210 1 0.01
0x400218 1 0.01
0x400220 5 0.04
0x400228 5 0.04
0x400230 5 0.04
0x400238 25 0.21
0x400240 25 0.21
0x400248 125 1.05
0x400250 125 1.05
0x400258 125 1.05
0x400260 125 1.05
0x400268 125 1.05
0x400270 125 1.05
0x400278 125 1.05
0x400280 625 5.27
0x400288 625 5.27
0x4002a8 625 5.27
0x4002b0 625 5.27
0x4002b8 625 5.27
0x4002c0 625 5.27
0x4002c8 625 5.27
0x4002d0 125 1.05
0x4002d8 125 1.05
0x4002e0 125 1.05
0x4002e8 125 1.05
0x4002f0 25 0.21
0x4002f8 25 0.21
0x400300 25 0.21
0x400308 25 0.21
0x400310 5 0.04
0x400318 5 0.04
0x400320 5 0.04
0x400328 5 0.04
0x400330 1 0.01
0x400338 1 0.01
0x400340 1 0.01
0x400348 1 0.01
0x400350 1 0.01
0x400358 1 0.01
0x400360 1 0.01
0x400368 1 0.01
0x400370 1 0.01
0x400380 1 0.01
0x400388 1 0.01
0x400390 1 0.01
0x400398 1 0.01
0x4003a0 1 0.01
0x4003a8 1 0.01
0x4003b0 1 0.01
0x4003b8 1 0.01
0x4003c0 1 0.01
0x4003c8 1 0.01
0x4003d0 1 0.01
0x4003d8 1 0.01
0x4003e0 1 0.01
0x4003e8 1 0.01
0x4003f0 1 0.01
0x4003f8 1 0.01
0x400400 1 0.01
0x400408 1 0.01
0x400410 1 0.01
0x400418 1 0.01
0x400420 1 0.01
0x400428 1 0.01
0x400430 1 0.01
0x4004e0 1 0.01
0x4004e8 1 0.01
0x4004f0 1 0.01
0x4004f8 1 0.01
0x400500 1 0.01
0x400550 1 0.01
0x400558 1 0.01
0x400560 1 0.01
0x400568 1 0.01
0x400570 1 0.01
0x400578 1 0.01
0x400580 1 0.01
0x400588 1 0.01
0x400590 1 0.01
0x400598 1 0.01
0x4005a0 1 0.01
0x4005a8 1 0.01
0x4005b8 1 0.01
0x4005c0 1 0.01
0x4005c8 1 0.01
0x4005d0 1 0.01
0x4005d8 1 0.01
0x4007f0 1 0.01
0x4007f8 1 0.01
0x400800 1 0.01
0x400808 1 0.01
0x400810 1 0.01
0x400818 1 0.01
0x400820 1 0.01
0x400840 1 0.01
0x400860 1 0.01
0x400868 1 0.01
0x400870 1 0.01
0x400878 1 0.01
0x400880 1 0.01
0x400888 1 0.01
0x4008a8 1 0.01
0x4008b0 1 0.01
0x4008b8 1 0.01
0x4008c0 1 0.01
0x4008e0 1 0.01
0x4008e8 1 0.01
0x4008f0 1 0.01
0x4008f8 1 0.01
0x400900 1 0.01
0x400908 1 0.01
0x400910 1 0.01
0x400918 1 0.01
0x400920 1 0.01
0x400928 1 0.01
0x400930 1 0.01
0x400938 1 0.01
0x400940 1 0.01
0x400948 1 0.01
0x400950 1 0.01
0x400958 1 0.01
0x400960 1 0.01
0x400968 1 0.01
0x400970 1 0.01
0x400978 1 0.01
0x400980 1 0.01
0x400988 1 0.01
0x400990 1 0.01
0x400998 1 0.01
0x4009a8 1 0.01
0x4009b0 1 0.01
0x4009b8 1 0.01
0x4009c0 1 0.01
0x4009c8 1 0.01
0x4009d0 1 0.01
0x4009d8 1 0.01
0x4009e0 1 0.01
0x4009e8 1 0.01
0x4009f0 1 0.01
0x4009f8 1 0.01
0x400a00 1 0.01
0x400a08 1 0.01
0x400a10 1 0.01
0x400a18 1 0.01
0x400a20 1 0.01
0x400a28 1 0.01
0x400a30 1 0.01
0x400a38 1 0.01
0x400a40 1 0.01
0x400a48 1 0.01
0x400a50 1 0.01
0x400a58 1 0.01
0x400a60 1 0.01
0x400a68 1 0.01
0x400a78 1 0.01
0x400a80 1 0.01
0x400a88 1 0.01
0x400a90 1 0.01
0x400a98 1 0.01
0x400aa0 1 0.01
0x400aa8 1 0.01
0x400ab0 1 0.01
0x400ab8 1 0.01
0x400ac0 1 0.01
0x400ac8 1 0.01
0x400ad0 1 0.01
0x400ad8 1 0.01
0x400ae0 1 0.01
0x400ae8 1 0.01
0x400af0 1 0.01
0x400af8 1 0.01
0x400b28 1 0.01
0x400b30 1 0.01
0x400b40 1 0.01
0x400b48 1 0.01
0x400b60 1 0.01
0x400b68 1 0.01
0x400b70 1 0.01
0x400b78 1 0.01
0x400b88 1 0.01
0x400b90 1 0.01
0x400b98 1 0.01
0x400ba0 1 0.01
0x400ba8 1 0.01
0x400e30 1 0.01
0x400e38 1 0.01
0x400e40 1 0.01
0x400e48 1 0.01
0x400e58 1 0.01
0x400e60 1 0.01
0x400e68 1 0.01
0x400e70 1 0.01
0x400e78 1 0.01
0x400e80 1 0.01
0x400e88 1 0.01
0x400e90 1 0.01
0x400e98 1 0.01
0x400ea0 1 0.01
0x400ea8 1 0.01
0x400eb0 1 0.01
0x400eb8 1 0.01
0x400ec0 1 0.01
0x400ec8 1 0.01
0x400ed0 1 0.01
0x400ed8 1 0.01
0x400ee0 1 0.01
0x400ee8 1 0.01
0x400ef0 1 0.01
0x400ef8 1 0.01
0x400f00 1 0.01
0x400f18 1 0.01
0x400f20 1 0.01
0x400f28 1 0.01
0x400f30 1 0.01
0x400f38 1 0.01
0x400f40 1 0.01
0x400f50 1 0.01
0x400f58 1 0.01
0x4012f0 1 0.01
0x4012f8 1 0.01
0x401300 1 0.01
0x401308 1 0.01
0x401310 1 0.01
0x401318 1 0.01
0x401320 1 0.01
0x401328 1 0.01
0x401330 1 0.01
0x401338 1 0.01
0x401340 1 0.01
0x401348 1 0.01
0x401350 1 0.01
0x401358 1 0.01
0x401360 1 0.01
0x401368 1 0.01
0x401370 1 0.01
0x401378 1 0.01
0x401380 1 0.01
0x401388 1 0.01
0x401390 1 0.01
0x401398 1 0.01
0x4013a0 1 0.01
0x4013a8 1 0.01
0x4013b0 1 0.01
0x4013b8 1 0.01
0x4014a0 1 0.01
0x4014a8 1 0.01
0x4014b0 1 0.01
0x4014b8 1 0.01
0x4014c0 1 0.01
0x4014c8 1 0.01
0x4014d0 1 0.01
0x4014e0 1 0.01
0x4014e8 1 0.01
0x4014f0 1 0.01
0x4014f8 1 0.01
0x401500 1 0.01
0x401508 1 0.01
0x401510 1 0.01
0x401518 1 0.01
0x401520 1 0.01
0x401528 1 0.01
0x401530 1 0.01
0x401538 1 0.01
0x401540 1 0.01
0x401548 1 0.01
0x401550 1 0.01
0x401558 1 0.01
0x401560 1 0.01
0x4017f8 1 0.01
0x401800 1 0.01
0x401808 1 0.01
0x401810 1 0.01
0x401818 1 0.01
0x401820 1 0.01
0x401828 1 0.01
0x401830 1 0.01
0x401840 4 0.03
0x401848 4 0.03
0x401850 4 0.03
0x401858 4 0.03
0x401860 4 0.03
0x401868 4 0.03
0x401870 4 0.03
0x401878 1 0.01
0x401880 1 0.01
0x401888 1 0.01
0x401890 1 0.01
0x401898 1 0.01
0x4018a0 1 0.01
0x4018a8 3 0.03
0x4018b0 3 0.03
0x4018c8 3 0.03
0x4018d0 3 0.03
0x4018d8 3 0.03
0x4018e0 3 0.03
0x4018e8 3 0.03
0x4018f0 3 0.03
0x4018f8 1 0.01
0x401900 1 0.01
0x401908 3 0.03
0x401910 3 0.03
0x401918 3 0.03
0x401920 3 0.03
0x401938 3 0.03
0x401940 3 0.03
0x401948 3 0.03
0x401950 3 0.03
0x401978 3 0.03
0x401980 3 0.03
0x401988 3 0.03
0x401990 2 0.02
0x401998 2 0.02
0x4019a0 2 0.02
0x4019a8 2 0.02
0x4019b0 2 0.02
0x4019c8 3 0.03
0x4019d0 3 0.03
0x4019d8 1 0.01
0x4019e0 1 0.01
0x4019e8 1 0.01
0x4019f0 1 0.01
0x4019f8 3 0.03
0x401a00 3 0.03
0x401a08 2 0.02
0x401a10 2 0.02
0x401a18 2 0.02
0x401a20 2 0.02
0x401a28 1 0.01
0x401a30 1 0.01
0x401a38 1 0.01
0x401a40 1 0.01
0x401a48 1 0.01
0x401a68 1 0.01
0x401a70 3 0.03
0x401a78 3 0.03
0x401a80 3 0.03
0x401a88 4 0.03
0x401a90 4 0.03
0x401a98 4 0.03
0x401aa0 4 0.03
0x401aa8 4 0.03
0x401ab0 4 0.03
0x401ae0 1 0.01
0x401ae8 1 0.01
0x401af0 1 0.01
0x401af8 1 0.01
0x401b30 1 0.01
0x401b38 1 0.01
0x401b40 1 0.01
0x401b48 1 0.01
0x401b50 1 0.01
0x401b58 1 0.01
0x401b60 1 0.01
0x401b68 1 0.01
0x401b70 1 0.01
0x401b78 1 0.01
0x401b80 1 0.01
0x401b88 1 0.01
0x401b90 1 0.01
0x401b98 1 0.01
0x401bd0 1 0.01
0x401bd8 1 0.01
0x401be0 1 0.01
0x401be8 1 0.01
0x401bf0 1 0.01
0x401bf8 1 0.01
0x401c00 1 0.01
0x401c08 1 0.01
0x401c10 1 0.01
0x401c18 1 0.01
0x401c20 1 0.01
0x401c28 1 0.01
0x401c68 1 0.01
0x401c70 1 0.01
0x401c78 1 0.01
0x401c80 3 0.03
0x401c88 3 0.03
0x401c90 3 0.03
0x401c98 3 0.03
0x401ca0 3 0.03
0x401ca8 3 0.03
0x401cb0 3 0.03
0x401cb8 3 0.03
0x401cc0 3 0.03
0x401cc8 3 0.03
0x401cd0 4 0.03
0x401cd8 4 0.03
0x401ce0 4 0.03
0x401ce8 4 0.03
0x401cf0 4 0.03
0x401cf8 4 0.03
0x401d00 4 0.03
0x401d08 4 0.03
0x401d10 4 0.03
0x401d18 4 0.03
0x401d48 4 0.03
0x401d50 4 0.03
0x401d58 4 0.03
0x401d60 390 3.29
0x401d68 390 3.29
0x401d70 390 3.29
0x401d78 390 3.29
0x401d80 390 3.29
0x401d88 390 3.29
0x401d90 390 3.29
0x401d98 390 3.29
0x401da0 390 3.29
0x401da8 390 3.29
0x401db0 390 3.29
0x401db8 390 3.29
0x401dc0 4 0.03
0x401dc8 4 0.03
0x401dd0 4 0.03
0x401dd8 12 0.10
0x401de0 12 0.10
0x401de8 12 0.10
0x401df0 12 0.10
0x401df8 4 0.03
0x401e00 4 0.03
0x401e28 4 0.03
0x401e30 4 0.03
0x402000 1 0.01
0x402008 1 0.01
0x402010 1 0.01
0x402018 1 0.01
0x402020 1 0.01
0x402028 1 0.01
0x402030 1 0.01
0x402038 1 0.01
0x402040 1 0.01
0x402048 1 0.01
0x402058 1 0.01
0x402060 1 0.01
0x402068 1 0.01
0x402070 1 0.01
0x402078 1 0.01
0x402080 1 0.01
0x402088 1 0.01
0x402090 1 0.01
0x402098 1 0.01
0x4020a0 1 0.01
0x4020a8 1 0.01
0x4020b0 1 0.01
0x4020b8 1 0.01
0x4020c0 1 0.01
0x4020c8 1 0.01
0x4020d0 1 0.01
0x4020d8 1 0.01
0x4020e0 1 0.01
0x4020e8 1 0.01
0x4020f0 1 0.01
0x4020f8 1 0.01
0x402100 1 0.01
0x402108 1 0.01
0x402110 1 0.01
0x402118 1 0.01
0x402168 1 0.01
0x402170 1 0.01
0x402178 1 0.01
0x402180 1 0.01
0x402188 1 0.01
0x402190 1 0.01
0x402198 1 0.01
0x4021b0 1 0.01
0x4021b8 1 0.01
0x4021c0 1 0.01
0x4021c8 1 0.01
0x4021d0 1 0.01
0x4021d8 1 0.01
0x4021e0 1 0.01
0x4021e8 1 0.01
0x4021f0 1 0.01
0x4021f8 1 0.01
0x402200 1 0.01
0x402208 1 0.01
0x402210 1 0.01
0x402260 1 0.01
0x402268 1 0.01
0x402270 1 0.01
0x402278 1 0.01
0x402280 1 0.01
0x402288 1 0.01
0x402290 1 0.01
0x402298 1 0.01
0x4022a0 1 0.01
0x4022a8 1 0.01
0x4022b0 1 0.01
0x4022b8 1 0.01
0x4022c0 1 0.01
0x4022c8 1 0.01
0x4022d0 1 0.01
0x4022d8 1 0.01
0x4022e0 1 0.01
0x4022e8 1 0.01
0x4022f0 1 0.01
0x4022f8 1 0.01
0x402300 1 0.01
0x402308 1 0.01
0x402310 1 0.01
0x402318 1 0.01
0x402320 1 0.01
0x402328 1 0.01
0x402330 1 0.01
0x402338 1 0.01
0x4023f0 1 0.01
0x4023f8 1 0.01
0x402400 1 0.01
0x402408 1 0.01
0x402410 1 0.01
0x402560 1 0.01
0x402568 1 0.01
0x402878 1 0.01
0x402880 1 0.01
0x402888 1 0.01
0x402890 1 0.01
0x402898 1 0.01
0x4028a0 1 0.01
0x4028a8 1 0.01
0x4028b0 1 0.01
0x4028b8 1 0.01
0x4028c0 1 0.01
0x4028c8 1 0.01
0x4028d0 1 0.01
0x4028f8 1 0.01
0x402900 1 0.01
0x402930 1 0.01
0x402938 1 0.01
0x402940 1 0.01
0x402948 1 0.01
0x402d78 2 0.02
0x402d80 2 0.02
0x402d88 2 0.02
0x402d90 2 0.02
0x402d98 2 0.02
0x402da0 2 0.02
0x402da8 2 0.02
0x402db0 2 0.02
0x402db8 2 0.02
0x402dc0 2 0.02
0x402dc8 2 0.02
0x402dd0 2 0.02
0x402dd8 2 0.02
0x402de0 2 0.02
0x402de8 2 0.02
0x402df0 2 0.02
0x402df8 2 0.02
0x402e00 2 0.02
0x402e08 2 0.02
0x402e10 2 0.02
0x402e18 2 0.02
0x402e20 2 0.02
0x402e28 2 0.02
0x402e30 2 0.02
0x402e38 2 0.02
0x402e40 2 0.02
0x402e48 2 0.02
0x402e50 2 0.02
0x403008 2 0.02
0x403010 2 0.02
0x403018 1 0.01
0x403020 1 0.01
0x403028 1 0.01
0x403030 1 0.01
0x403038 1 0.01
0x403040 1 0.01
0x403048 1 0.01
0x4030b0 2 0.02
0x4030b8 2 0.02
0x4030c0 2 0.02
0x4030c8 2 0.02
0x403100 2 0.02
0x403108 2 0.02
0x403110 2 0.02
0x403118 2 0.02
0x403120 2 0.02
0x403128 2 0.02
0x403130 2 0.02
0x403138 2 0.02
0x403140 2 0.02
0x403148 2 0.02
0x403150 2 0.02
0x403450 2 0.02
0x403458 2 0.02
0x403460 2 0.02
0x403468 2 0.02
0x403470 2 0.02
0x403478 2 0.02
0x403480 2 0.02
0x403488 2 0.02
0x403490 2 0.02
0x4034a8 2 0.02
0x4034b0 2 0.02
0x4034b8 2 0.02
0x4034c0 2 0.02
0x4034c8 2 0.02
0x4034d0 2 0.02
0x4034d8 2 0.02
0x4034e0 2 0.02
0x4034e8 2 0.02
0x4034f0 2 0.02
0x4034f8 2 0.02
0x403990 2 0.02
0x403998 2 0.02
0x4039a0 2 0.02
0x4039a8 2 0.02
0x4039b0 2 0.02
0x4039b8 2 0.02
0x4039c0 2 0.02
0x4039c8 2 0.02
0x4039d0 2 0.02
0x4039d8 2 0.02
0x4039e0 2 0.02
0x4039e8 2 0.02
0x4039f0 2 0.02
0x4039f8 2 0.02
0x403a00 2 0.02
0x403a18 2 0.02
0x403a20 2 0.02
0x403a28 2 0.02
0x403a30 2 0.02
0x403a38 2 0.02
0x403a40 2 0.02
0x403a48 2 0.02
0x403a70 2 0.02
0x403a78 2 0.02
0x403a80 2 0.02
0x403a88 2 0.02
0x403a90 2 0.02
0x403ac8 2 0.02
0x403ad0 2 0.02
0x403ad8 2 0.02
0x403ae0 2 0.02
0x403ae8 2 0.02
0x403af0 2 0.02
0x403af8 2 0.02
0x403b00 2 0.02
0x403b08 2 0.02
0x403b10 2 0.02
0x403b18 2 0.02
0x403b20 2 0.02
0x403b28 2 0.02
0x403b30 2 0.02
0x403b38 2 0.02
0x403b40 2 0.02
0x403b48 2 0.02
0x403b50 2 0.02
0x403b58 2 0.02
0x403b60 2 0.02
0x403b68 2 0.02
0x403b70 2 0.02
0x403b78 2 0.02
0x403b80 2 0.02
0x403b88 2 0.02
0x403b90 2 0.02
0x403b98 2 0.02
0x403ba0 2 0.02
0x403ba8 2 0.02
0x403bb0 2 0.02
0x403bb8 1 0.01
0x403bc0 1 0.01
0x403bd8 1 0.01
0x403be0 1 0.01
0x403be8 1 0.01
0x403bf0 1 0.01
0x403bf8 1 0.01
0x403c00 1 0.01
0x403c08 1 0.01
0x403c40 1 0.01
0x403c48 1 0.01
0x403c50 1 0.01
0x403c78 2 0.02
0x403c80 2 0.02
0x403c88 2 0.02
0x403c90 2 0.02
0x403c98 2 0.02
0x403ca0 2 0.02
0x403ca8 2 0.02
0x403cb0 2 0.02
0x403cb8 2 0.02
0x403ce8 2 0.02
0x403db0 2 0.02
0x403db8 2 0.02
0x403dc0 2 0.02
0x403de8 2 0.02
0x403df0 2 0.02
0x403e00 2 0.02
0x403e08 2 0.02
0x403e10 2 0.02
0x403e18 2 0.02
0x403e20 2 0.02
0x403e28 2 0.02
0x403e58 2 0.02
0x403e60 2 0.02
0x403e68 2 0.02
0x403e70 2 0.02
0x403e88 2 0.02
0x403e90 2 0.02
0x403e98 2 0.02
0x403ea0 2 0.02
0x403ea8 2 0.02
0x403eb0 2 0.02
0x403eb8 2 0.02
0x403ec0 2 0.02
0x404458 3 0.03
0x404460 3 0.03
0x404468 3 0.03
0x404470 3 0.03
0x404478 3 0.03
0x404480 3 0.03
0x404488 3 0.03
0x404490 3 0.03
0x404498 3 0.03
0x4044a0 3 0.03
0x4044a8 3 0.03
0x4044b0 3 0.03
0x4044b8 3 0.03
0x4044c0 3 0.03
0x4044c8 3 0.03
0x404670 2 0.02
0x404678 2 0.02
0x404680 2 0.02
0x404688 2 0.02
0x404690 2 0.02
0x404698 2 0.02
0x404b10 3 0.03
0x404b18 3 0.03
0x404b20 3 0.03
0x404b28 3 0.03
0x404b40 3 0.03
0x404b48 3 0.03
0x404b50 3 0.03
0x404b58 3 0.03
0x404b60 3 0.03
0x404b68 3 0.03
0x404b70 3 0.03
0x404b78 3 0.03
0x404b80 3 0.03
0x404b88 3 0.03
0x404b90 3 0.03
0x4053f0 2 0.02
0x4053f8 2 0.02
0x405400 2 0.02
0x405408 2 0.02
0x405410 2 0.02
0x405418 2 0.02
0x405420 2 0.02
0x405428 2 0.02
0x405430 2 0.02
0x405438 2 0.02
0x405440 2 0.02
0x405448 1 0.01
0x405450 1 0.01
0x405458 1 0.01
0x405460 1 0.01
0x405468 1 0.01
0x405470 1 0.01
0x405478 1 0.01
0x405480 1 0.01
0x4054a8 1 0.01
0x4054b0 1 0.01
0x4054f0 1 0.01
0x4054f8 1 0.01
0x405500 2 0.02
0x405508 2 0.02
0x405510 2 0.02
0x405518 2 0.02
0x405520 2 0.02
0x405600 2 0.02
0x405608 2 0.02
0x405610 2 0.02
0x405618 2 0.02
0x405620 2 0.02
0x4056b0 3 0.03
0x4056b8 3 0.03
0x4056c0 3 0.03
0x4056d0 3 0.03
0x4056d8 3 0.03
0x4056e0 3 0.03
0x4056e8 3 0.03
0x4056f0 3 0.03
0x4056f8 3 0.03
0x405720 1 0.01
0x405728 1 0.01
0x405730 1 0.01
0x405738 1 0.01
0x405740 1 0.01
sim_num_insn_by_pc.end_dist

ld_text_base             0x00400000 # program text (code) segment base
ld_text_size                  22656 # program text (code) size in bytes
ld_data_base             0x10000000 # program initialized data segment base
ld_data_size                   8192 # program init'ed `.data' and uninit'ed `.bss' size in bytes
ld_stack_base            0x7fffc000 # program stack segment base (highest address in stack)
ld_stack_size                 16384 # program initial stack size
ld_prog_entry            0x00400140 # program entry point (initial PC)
ld_environ_base          0x7fff8000 # program environment base address address
ld_target_big_endian              0 # target executable endian-ness, non-zero if big endian
mem.page_count                   13 # total number of pages allocated
mem.page_mem                    52k # total size of memory pages allocated
mem.ptab_misses                  13 # total first level page table misses
mem.ptab_accesses            208838 # total page table accesses
mem.ptab_miss_rate           0.0001 # first level page table miss rate

+--------------------------------------------------------------+
| effective code range:         [0, fffffff8]                  |
| effective bpred count:        0                              |
| effective sim cycles:         0                              |
| effective bpred misses:       0                              |
| effective icache misses:      0                              |
+--------------------------------------------------------------+

