sim-profile: SimpleScalar/PISA Tool Set version 3.0 of August, 2003.
Copyright (c) 1994-2003 by Todd M. Austin, Ph.D. and SimpleScalar, LLC.
All Rights Reserved. This version of SimpleScalar is licensed for academic
non-commercial use.  No portion of this work may be used by any commercial
entity, or for any commercial purpose, without the prior written permission
of SimpleScalar, LLC (info@simplescalar.com).

sim: command line: /home/sudiptac/sudiptac/Work/simplesim-3.0/sim-profile -pcstat sim_num_insn statemate 

sim: simulation started @ Wed Aug 10 19:14:25 2011, options follow:

sim-profile: This simulator implements a functional simulator with
profiling support.  Run with the `-h' flag to see profiling options
available.

# -config                     # load configuration from a file
# -dumpconfig                 # dump configuration to a file
# -h                    false # print help message    
# -v                    false # verbose operation     
# -d                    false # enable debug message  
# -i                    false # start in Dlite debugger
-seed                       1 # random number generator seed (0 for timer seed)
# -q                    false # initialize and terminate immediately
# -chkpt               <null> # restore EIO trace execution from <fname>
# -redir:sim           <null> # redirect simulator output to file (non-interactive only)
# -redir:prog          <null> # redirect simulated target_name output to file
-nice                       0 # simulator scheduling priority
-max:inst                   0 # maximum number of inst's to execute
-all                    false # enable all profile options
-iclass                 false # enable instruction class profiling
-iprof                  false # enable instruction profiling
-brprof                 false # enable branch instruction profiling
-amprof                 false # enable address mode profiling
-segprof                false # enable load/store address segment profiling
-tsymprof               false # enable text symbol profiling
-taddrprof              false # enable text address profiling
-dsymprof               false # enable data symbol profiling
-internal               false # include compiler-internal symbols during symbol profiling
# -pcstat        sim_num_insn # profile stat(s) against text addr's (mult uses ok)

sim: ** starting functional simulation **

sim: ** simulation statistics **
sim_num_insn                   6563 # total number of instructions executed
sim_num_refs                   4089 # total number of loads and stores executed
sim_elapsed_time                  1 # total simulation time in seconds
sim_inst_rate             6563.0000 # simulation speed (in insts/sec)

sim_num_insn_by_pc     # total number of instructions executed (by text address)
sim_num_insn_by_pc.count = 1123
sim_num_insn_by_pc.total = 6562
sim_num_insn_by_pc.imin = 0x400140
sim_num_insn_by_pc.imax = 0x407ab0
sim_num_insn_by_pc.average =   5.8433
sim_num_insn_by_pc.std_dev =  39.9541
sim_num_insn_by_pc.overflows = 0
# pdf == prob dist fn, cdf == cumulative dist fn
#          index      count    pdf 
sim_num_insn_by_pc.start_dist
0x400140 1 0.02
0x400148 1 0.02
0x400150 1 0.02
0x400158 1 0.02
0x400160 1 0.02
0x400168 1 0.02
0x400170 1 0.02
0x400178 1 0.02
0x400180 1 0.02
0x400188 1 0.02
0x400190 1 0.02
0x400198 1 0.02
0x4001a0 1 0.02
0x4001a8 1 0.02
0x4001b0 1 0.02
0x4001b8 1 0.02
0x4001c0 1 0.02
0x4001c8 1 0.02
0x4001d0 1 0.02
0x4001d8 1 0.02
0x4001e0 1 0.02
0x4001f0 1 0.02
0x4001f8 1 0.02
0x400200 1 0.02
0x400220 1 0.02
0x400228 1 0.02
0x400230 1 0.02
0x400248 1 0.02
0x400250 1 0.02
0x4002b8 1 0.02
0x4002c0 1 0.02
0x400328 1 0.02
0x400330 1 0.02
0x400398 1 0.02
0x4003a0 1 0.02
0x400400 1 0.02
0x400408 1 0.02
0x400468 1 0.02
0x400470 1 0.02
0x400478 1 0.02
0x400480 1 0.02
0x400488 1 0.02
0x400490 1 0.02
0x4004a8 1 0.02
0x4004b0 1 0.02
0x4004b8 1 0.02
0x4004c0 1 0.02
0x4004c8 1 0.02
0x4004d0 1 0.02
0x4004d8 1 0.02
0x4004e0 1 0.02
0x4004e8 1 0.02
0x4004f0 1 0.02
0x4004f8 1 0.02
0x400500 1 0.02
0x400508 1 0.02
0x400510 1 0.02
0x400518 1 0.02
0x400520 1 0.02
0x400528 1 0.02
0x400530 1 0.02
0x400538 1 0.02
0x400540 1 0.02
0x400548 1 0.02
0x400550 2 0.03
0x400558 2 0.03
0x400560 2 0.03
0x400ad8 2 0.03
0x400ae0 2 0.03
0x400ae8 2 0.03
0x400af0 2 0.03
0x400af8 2 0.03
0x400b00 2 0.03
0x400b08 2 0.03
0x400b48 2 0.03
0x400b50 2 0.03
0x400b58 2 0.03
0x401820 2 0.03
0x401828 2 0.03
0x401830 2 0.03
0x401838 2 0.03
0x401920 2 0.03
0x401928 2 0.03
0x401930 2 0.03
0x401938 2 0.03
0x401940 2 0.03
0x401948 2 0.03
0x401950 2 0.03
0x401980 2 0.03
0x401988 2 0.03
0x401990 2 0.03
0x401ce0 2 0.03
0x401ce8 1 0.02
0x401cf0 1 0.02
0x401cf8 1 0.02
0x401d00 1 0.02
0x401d08 1 0.02
0x401d10 1 0.02
0x401d18 1 0.02
0x401d20 1 0.02
0x401d28 1 0.02
0x401d30 1 0.02
0x401d38 1 0.02
0x401d40 1 0.02
0x401d48 1 0.02
0x401d50 1 0.02
0x401d58 1 0.02
0x401d60 1 0.02
0x401d68 1 0.02
0x401d70 1 0.02
0x401d78 2 0.03
0x401d80 2 0.03
0x401d88 2 0.03
0x401d90 2 0.03
0x401d98 2 0.03
0x401da0 2 0.03
0x401da8 1 0.02
0x401db0 1 0.02
0x401db8 1 0.02
0x401dc0 1 0.02
0x401df8 1 0.02
0x401e00 1 0.02
0x401e40 1 0.02
0x401e48 1 0.02
0x401ea8 1 0.02
0x401eb0 1 0.02
0x401eb8 1 0.02
0x401ec0 2 0.03
0x401ec8 2 0.03
0x401ed0 2 0.03
0x401ed8 2 0.03
0x401ee0 2 0.03
0x401ee8 2 0.03
0x401ef0 2 0.03
0x401ef8 2 0.03
0x401f00 2 0.03
0x401f08 2 0.03
0x401f10 2 0.03
0x401f18 2 0.03
0x401f20 2 0.03
0x401f28 2 0.03
0x401f30 2 0.03
0x401f38 2 0.03
0x401f40 2 0.03
0x401f48 2 0.03
0x401f50 2 0.03
0x401f58 2 0.03
0x401f60 2 0.03
0x401f68 2 0.03
0x401f70 2 0.03
0x401f78 2 0.03
0x401f80 2 0.03
0x401f88 2 0.03
0x401f90 2 0.03
0x401f98 2 0.03
0x401fa0 2 0.03
0x401fa8 2 0.03
0x401fb0 2 0.03
0x401fb8 2 0.03
0x401fc0 2 0.03
0x401fc8 2 0.03
0x401fd0 2 0.03
0x401ff0 2 0.03
0x401ff8 2 0.03
0x402000 2 0.03
0x402008 2 0.03
0x402028 2 0.03
0x402030 2 0.03
0x402038 2 0.03
0x402040 2 0.03
0x402060 2 0.03
0x402068 2 0.03
0x402070 2 0.03
0x402078 2 0.03
0x402098 2 0.03
0x4020a0 2 0.03
0x4020a8 2 0.03
0x4020b0 2 0.03
0x4020b8 2 0.03
0x4020c0 2 0.03
0x4020c8 2 0.03
0x4020d0 2 0.03
0x4020d8 2 0.03
0x4020e0 2 0.03
0x4020e8 2 0.03
0x4020f0 2 0.03
0x4020f8 2 0.03
0x402100 2 0.03
0x402108 2 0.03
0x402110 2 0.03
0x402118 2 0.03
0x402120 2 0.03
0x402128 2 0.03
0x402130 2 0.03
0x402138 2 0.03
0x402140 2 0.03
0x402148 2 0.03
0x402150 2 0.03
0x402158 2 0.03
0x402160 2 0.03
0x402168 2 0.03
0x402170 2 0.03
0x402178 2 0.03
0x402180 2 0.03
0x402188 2 0.03
0x402190 2 0.03
0x402198 2 0.03
0x4021a0 2 0.03
0x4021a8 2 0.03
0x4021b0 2 0.03
0x4021b8 2 0.03
0x4021c0 2 0.03
0x4021c8 2 0.03
0x4021d0 2 0.03
0x4021d8 2 0.03
0x4021e0 2 0.03
0x4021e8 2 0.03
0x4021f0 2 0.03
0x4021f8 2 0.03
0x402200 2 0.03
0x402208 2 0.03
0x402210 2 0.03
0x402218 2 0.03
0x402220 2 0.03
0x402228 2 0.03
0x402230 2 0.03
0x402238 2 0.03
0x402240 2 0.03
0x402248 2 0.03
0x402250 2 0.03
0x402258 2 0.03
0x402260 2 0.03
0x402268 2 0.03
0x402270 2 0.03
0x402278 2 0.03
0x402280 2 0.03
0x402288 2 0.03
0x402290 2 0.03
0x402298 2 0.03
0x4022a0 2 0.03
0x4022a8 2 0.03
0x4022b0 2 0.03
0x4022b8 2 0.03
0x4022c0 2 0.03
0x4022c8 2 0.03
0x4022d0 2 0.03
0x4022d8 2 0.03
0x4022e0 2 0.03
0x4022e8 2 0.03
0x4022f0 2 0.03
0x4022f8 2 0.03
0x402300 2 0.03
0x402308 2 0.03
0x402310 2 0.03
0x402318 2 0.03
0x402320 2 0.03
0x402328 2 0.03
0x402330 2 0.03
0x402338 2 0.03
0x402340 2 0.03
0x402348 2 0.03
0x402350 2 0.03
0x402358 2 0.03
0x402360 2 0.03
0x402368 2 0.03
0x402370 2 0.03
0x402378 2 0.03
0x402380 2 0.03
0x402388 2 0.03
0x402390 2 0.03
0x402398 2 0.03
0x4023a0 2 0.03
0x4023a8 2 0.03
0x4023b0 2 0.03
0x4023b8 2 0.03
0x4023c0 2 0.03
0x4023c8 2 0.03
0x4023d0 2 0.03
0x4023d8 2 0.03
0x4023e0 2 0.03
0x4023e8 2 0.03
0x4023f0 2 0.03
0x4023f8 2 0.03
0x402400 2 0.03
0x402408 2 0.03
0x402410 2 0.03
0x402418 2 0.03
0x402420 2 0.03
0x402428 2 0.03
0x402430 2 0.03
0x402438 2 0.03
0x402440 2 0.03
0x402448 2 0.03
0x402450 2 0.03
0x402458 2 0.03
0x402460 2 0.03
0x402468 2 0.03
0x402470 2 0.03
0x402478 2 0.03
0x402480 2 0.03
0x402488 2 0.03
0x402490 2 0.03
0x402498 2 0.03
0x4024a0 2 0.03
0x4024a8 2 0.03
0x4024b0 2 0.03
0x4024b8 2 0.03
0x4024c0 2 0.03
0x4024c8 2 0.03
0x4024d0 2 0.03
0x4024d8 2 0.03
0x4024e0 2 0.03
0x4024e8 2 0.03
0x4024f0 2 0.03
0x4024f8 2 0.03
0x402500 2 0.03
0x402508 2 0.03
0x402510 2 0.03
0x402518 2 0.03
0x402520 2 0.03
0x402528 2 0.03
0x402530 2 0.03
0x402538 2 0.03
0x402540 2 0.03
0x402548 2 0.03
0x402550 2 0.03
0x402558 2 0.03
0x402560 2 0.03
0x402568 2 0.03
0x402570 2 0.03
0x402578 2 0.03
0x402580 2 0.03
0x402588 2 0.03
0x402590 2 0.03
0x402598 2 0.03
0x4025a0 2 0.03
0x4025a8 2 0.03
0x4025b0 2 0.03
0x4025b8 2 0.03
0x4025c0 2 0.03
0x4025c8 2 0.03
0x4025d0 2 0.03
0x4025d8 2 0.03
0x4025e0 2 0.03
0x4025e8 2 0.03
0x4025f0 2 0.03
0x4025f8 2 0.03
0x402600 2 0.03
0x402608 2 0.03
0x402610 2 0.03
0x402618 2 0.03
0x402620 2 0.03
0x402628 2 0.03
0x402630 2 0.03
0x402638 2 0.03
0x402640 2 0.03
0x402648 2 0.03
0x402650 2 0.03
0x402658 1 0.02
0x402660 1 0.02
0x402668 1 0.02
0x402670 1 0.02
0x402678 1 0.02
0x402680 1 0.02
0x402688 1 0.02
0x402690 1 0.02
0x402698 1 0.02
0x4026a0 1 0.02
0x4026a8 1 0.02
0x4026b0 1 0.02
0x4026b8 1 0.02
0x4026c0 1 0.02
0x4026c8 1 0.02
0x4026d0 1 0.02
0x4026d8 1 0.02
0x4026e0 1 0.02
0x4026e8 1 0.02
0x4026f0 1 0.02
0x4026f8 1 0.02
0x402700 1 0.02
0x402708 1 0.02
0x402710 1 0.02
0x402718 1 0.02
0x402720 1 0.02
0x402728 1 0.02
0x402730 1 0.02
0x402738 1 0.02
0x402740 1 0.02
0x402748 1 0.02
0x402750 1 0.02
0x402758 1 0.02
0x402760 1 0.02
0x402768 1 0.02
0x402770 1 0.02
0x402778 1 0.02
0x402780 1 0.02
0x402788 1 0.02
0x402790 1 0.02
0x402798 1 0.02
0x4027a0 1 0.02
0x402850 1 0.02
0x402858 1 0.02
0x402860 1 0.02
0x402868 1 0.02
0x402870 1 0.02
0x4028c0 1 0.02
0x4028c8 1 0.02
0x4028d0 1 0.02
0x4028d8 1 0.02
0x4028e0 1 0.02
0x4028e8 1 0.02
0x4028f0 1 0.02
0x4028f8 1 0.02
0x402900 1 0.02
0x402908 1 0.02
0x402910 1 0.02
0x402918 1 0.02
0x402928 1 0.02
0x402930 1 0.02
0x402938 1 0.02
0x402940 1 0.02
0x402948 1 0.02
0x402b60 1 0.02
0x402b68 1 0.02
0x402b70 1 0.02
0x402b78 1 0.02
0x402b80 1 0.02
0x402b88 1 0.02
0x402b90 1 0.02
0x402bb0 1 0.02
0x402bd0 1 0.02
0x402bd8 1 0.02
0x402be0 1 0.02
0x402be8 1 0.02
0x402bf0 1 0.02
0x402bf8 1 0.02
0x402c18 1 0.02
0x402c20 1 0.02
0x402c28 1 0.02
0x402c30 1 0.02
0x402c50 1 0.02
0x402c58 1 0.02
0x402c60 1 0.02
0x402c68 1 0.02
0x402c70 1 0.02
0x402c78 1 0.02
0x402c80 1 0.02
0x402c88 1 0.02
0x402c90 1 0.02
0x402c98 1 0.02
0x402ca0 1 0.02
0x402ca8 1 0.02
0x402cb0 1 0.02
0x402cb8 1 0.02
0x402cc0 1 0.02
0x402cc8 1 0.02
0x402cd0 1 0.02
0x402cd8 1 0.02
0x402ce0 1 0.02
0x402ce8 1 0.02
0x402cf0 1 0.02
0x402cf8 1 0.02
0x402d00 1 0.02
0x402d08 1 0.02
0x402d18 1 0.02
0x402d20 1 0.02
0x402d28 1 0.02
0x402d30 1 0.02
0x402d38 1 0.02
0x402d40 1 0.02
0x402d48 1 0.02
0x402d50 1 0.02
0x402d58 1 0.02
0x402d60 1 0.02
0x402d68 1 0.02
0x402d70 1 0.02
0x402d78 1 0.02
0x402d80 1 0.02
0x402d88 1 0.02
0x402d90 1 0.02
0x402d98 1 0.02
0x402da0 1 0.02
0x402da8 1 0.02
0x402db0 1 0.02
0x402db8 1 0.02
0x402dc0 1 0.02
0x402dc8 1 0.02
0x402dd0 1 0.02
0x402dd8 1 0.02
0x402de8 1 0.02
0x402df0 1 0.02
0x402df8 1 0.02
0x402e00 1 0.02
0x402e08 1 0.02
0x402e10 1 0.02
0x402e18 1 0.02
0x402e20 1 0.02
0x402e28 1 0.02
0x402e30 1 0.02
0x402e38 1 0.02
0x402e40 1 0.02
0x402e48 1 0.02
0x402e50 1 0.02
0x402e58 1 0.02
0x402e60 1 0.02
0x402e68 1 0.02
0x402e98 1 0.02
0x402ea0 1 0.02
0x402eb0 1 0.02
0x402eb8 1 0.02
0x402ed0 1 0.02
0x402ed8 1 0.02
0x402ee0 1 0.02
0x402ee8 1 0.02
0x402ef8 1 0.02
0x402f00 1 0.02
0x402f08 1 0.02
0x402f10 1 0.02
0x402f18 1 0.02
0x4031a0 1 0.02
0x4031a8 1 0.02
0x4031b0 1 0.02
0x4031b8 1 0.02
0x4031c8 1 0.02
0x4031d0 1 0.02
0x4031d8 1 0.02
0x4031e0 1 0.02
0x4031e8 1 0.02
0x4031f0 1 0.02
0x4031f8 1 0.02
0x403200 1 0.02
0x403208 1 0.02
0x403210 1 0.02
0x403218 1 0.02
0x403220 1 0.02
0x403228 1 0.02
0x403230 1 0.02
0x403238 1 0.02
0x403240 1 0.02
0x403248 1 0.02
0x403250 1 0.02
0x403258 1 0.02
0x403260 1 0.02
0x403268 1 0.02
0x403270 1 0.02
0x403288 1 0.02
0x403290 1 0.02
0x403298 1 0.02
0x4032a0 1 0.02
0x4032a8 1 0.02
0x4032b0 1 0.02
0x4032c0 1 0.02
0x4032c8 1 0.02
0x403660 1 0.02
0x403668 1 0.02
0x403670 1 0.02
0x403678 1 0.02
0x403680 1 0.02
0x403688 1 0.02
0x403690 1 0.02
0x403698 1 0.02
0x4036a0 1 0.02
0x4036a8 1 0.02
0x4036b0 1 0.02
0x4036b8 1 0.02
0x4036c0 1 0.02
0x4036c8 1 0.02
0x4036d0 1 0.02
0x4036d8 1 0.02
0x4036e0 1 0.02
0x4036e8 1 0.02
0x4036f0 1 0.02
0x4036f8 1 0.02
0x403700 1 0.02
0x403708 1 0.02
0x403710 1 0.02
0x403718 1 0.02
0x403720 1 0.02
0x403728 1 0.02
0x403810 1 0.02
0x403818 1 0.02
0x403820 1 0.02
0x403828 1 0.02
0x403830 1 0.02
0x403838 1 0.02
0x403840 1 0.02
0x403850 1 0.02
0x403858 1 0.02
0x403860 1 0.02
0x403868 1 0.02
0x403870 1 0.02
0x403878 1 0.02
0x403880 1 0.02
0x403888 1 0.02
0x403890 1 0.02
0x403898 1 0.02
0x4038a0 1 0.02
0x4038a8 1 0.02
0x4038b0 1 0.02
0x4038b8 1 0.02
0x4038c0 1 0.02
0x4038c8 1 0.02
0x4038d0 1 0.02
0x403b68 1 0.02
0x403b70 1 0.02
0x403b78 1 0.02
0x403b80 1 0.02
0x403b88 1 0.02
0x403b90 1 0.02
0x403b98 1 0.02
0x403ba0 1 0.02
0x403bb0 4 0.06
0x403bb8 4 0.06
0x403bc0 4 0.06
0x403bc8 4 0.06
0x403bd0 4 0.06
0x403bd8 4 0.06
0x403be0 4 0.06
0x403be8 1 0.02
0x403bf0 1 0.02
0x403bf8 1 0.02
0x403c00 1 0.02
0x403c08 1 0.02
0x403c10 1 0.02
0x403c18 3 0.05
0x403c20 3 0.05
0x403c38 3 0.05
0x403c40 3 0.05
0x403c48 3 0.05
0x403c50 3 0.05
0x403c58 3 0.05
0x403c60 3 0.05
0x403c68 1 0.02
0x403c70 1 0.02
0x403c78 3 0.05
0x403c80 3 0.05
0x403c88 3 0.05
0x403c90 3 0.05
0x403ca8 3 0.05
0x403cb0 3 0.05
0x403cb8 3 0.05
0x403cc0 3 0.05
0x403ce8 3 0.05
0x403cf0 3 0.05
0x403cf8 3 0.05
0x403d00 2 0.03
0x403d08 2 0.03
0x403d10 2 0.03
0x403d18 2 0.03
0x403d20 2 0.03
0x403d38 3 0.05
0x403d40 3 0.05
0x403d48 1 0.02
0x403d50 1 0.02
0x403d58 1 0.02
0x403d60 1 0.02
0x403d68 3 0.05
0x403d70 3 0.05
0x403d78 2 0.03
0x403d80 2 0.03
0x403d88 2 0.03
0x403d90 2 0.03
0x403d98 1 0.02
0x403da0 1 0.02
0x403da8 1 0.02
0x403db0 1 0.02
0x403db8 1 0.02
0x403dd8 1 0.02
0x403de0 3 0.05
0x403de8 3 0.05
0x403df0 3 0.05
0x403df8 4 0.06
0x403e00 4 0.06
0x403e08 4 0.06
0x403e10 4 0.06
0x403e18 4 0.06
0x403e20 4 0.06
0x403e50 1 0.02
0x403e58 1 0.02
0x403e60 1 0.02
0x403e68 1 0.02
0x403ea0 1 0.02
0x403ea8 1 0.02
0x403eb0 1 0.02
0x403eb8 1 0.02
0x403ec0 1 0.02
0x403ec8 1 0.02
0x403ed0 3 0.05
0x403ed8 3 0.05
0x403ee0 3 0.05
0x403ee8 3 0.05
0x403ef0 3 0.05
0x403ef8 3 0.05
0x403f00 3 0.05
0x403f08 3 0.05
0x403f10 2 0.03
0x403f18 2 0.03
0x403f20 2 0.03
0x403f28 2 0.03
0x403f30 2 0.03
0x403f38 2 0.03
0x403f40 1 0.02
0x403f48 1 0.02
0x403f50 1 0.02
0x403f58 1 0.02
0x403f60 1 0.02
0x403f68 1 0.02
0x403f70 1 0.02
0x403f78 1 0.02
0x403fd8 1 0.02
0x403fe0 1 0.02
0x403fe8 1 0.02
0x403ff0 3 0.05
0x403ff8 3 0.05
0x404000 3 0.05
0x404008 3 0.05
0x404010 3 0.05
0x404018 3 0.05
0x404020 3 0.05
0x404028 3 0.05
0x404030 3 0.05
0x404038 3 0.05
0x404040 4 0.06
0x404048 4 0.06
0x404050 4 0.06
0x404058 4 0.06
0x404060 4 0.06
0x404068 4 0.06
0x404070 4 0.06
0x404078 4 0.06
0x404080 4 0.06
0x404088 4 0.06
0x4040b8 4 0.06
0x4040c0 4 0.06
0x4040c8 4 0.06
0x4040d0 390 5.94
0x4040d8 390 5.94
0x4040e0 390 5.94
0x4040e8 390 5.94
0x4040f0 390 5.94
0x4040f8 390 5.94
0x404100 390 5.94
0x404108 390 5.94
0x404110 390 5.94
0x404118 390 5.94
0x404120 390 5.94
0x404128 390 5.94
0x404130 4 0.06
0x404138 4 0.06
0x404140 4 0.06
0x404148 12 0.18
0x404150 12 0.18
0x404158 12 0.18
0x404160 12 0.18
0x404168 4 0.06
0x404170 4 0.06
0x404198 4 0.06
0x4041a0 4 0.06
0x404370 1 0.02
0x404378 1 0.02
0x404380 1 0.02
0x404388 1 0.02
0x404390 1 0.02
0x404398 1 0.02
0x4043a0 1 0.02
0x4043a8 1 0.02
0x4043b0 1 0.02
0x4043b8 1 0.02
0x4043c8 1 0.02
0x4043d0 1 0.02
0x4043d8 1 0.02
0x4043e0 1 0.02
0x4043e8 1 0.02
0x4043f0 1 0.02
0x4043f8 1 0.02
0x404400 1 0.02
0x404408 1 0.02
0x404410 1 0.02
0x404418 1 0.02
0x404420 1 0.02
0x404428 1 0.02
0x404430 1 0.02
0x404438 1 0.02
0x404440 1 0.02
0x404448 1 0.02
0x404450 1 0.02
0x404458 1 0.02
0x404460 1 0.02
0x404468 1 0.02
0x404470 1 0.02
0x404478 1 0.02
0x404480 1 0.02
0x404488 1 0.02
0x4044d8 1 0.02
0x4044e0 1 0.02
0x4044e8 1 0.02
0x4044f0 1 0.02
0x4044f8 1 0.02
0x404500 1 0.02
0x404508 1 0.02
0x404520 1 0.02
0x404528 1 0.02
0x404530 1 0.02
0x404538 1 0.02
0x404540 1 0.02
0x404548 1 0.02
0x404550 1 0.02
0x404558 1 0.02
0x404560 1 0.02
0x404568 1 0.02
0x404570 1 0.02
0x404578 1 0.02
0x404580 1 0.02
0x4045d0 1 0.02
0x4045d8 1 0.02
0x4045e0 1 0.02
0x4045e8 1 0.02
0x4045f0 1 0.02
0x4045f8 1 0.02
0x404600 1 0.02
0x404608 1 0.02
0x404610 1 0.02
0x404618 1 0.02
0x404620 1 0.02
0x404628 1 0.02
0x404630 1 0.02
0x404638 1 0.02
0x404640 1 0.02
0x404648 1 0.02
0x404650 1 0.02
0x404658 1 0.02
0x404660 1 0.02
0x404668 1 0.02
0x404670 1 0.02
0x404678 1 0.02
0x404680 1 0.02
0x404688 1 0.02
0x404690 1 0.02
0x404698 1 0.02
0x4046a0 1 0.02
0x4046a8 1 0.02
0x404760 1 0.02
0x404768 1 0.02
0x404770 1 0.02
0x404778 1 0.02
0x404780 1 0.02
0x4048d0 1 0.02
0x4048d8 1 0.02
0x404be8 1 0.02
0x404bf0 1 0.02
0x404bf8 1 0.02
0x404c00 1 0.02
0x404c08 1 0.02
0x404c10 1 0.02
0x404c18 1 0.02
0x404c20 1 0.02
0x404c28 1 0.02
0x404c30 1 0.02
0x404c38 1 0.02
0x404c40 1 0.02
0x404c68 1 0.02
0x404c70 1 0.02
0x404ca0 1 0.02
0x404ca8 1 0.02
0x404cb0 1 0.02
0x404cb8 1 0.02
0x4050e8 2 0.03
0x4050f0 2 0.03
0x4050f8 2 0.03
0x405100 2 0.03
0x405108 2 0.03
0x405110 2 0.03
0x405118 2 0.03
0x405120 2 0.03
0x405128 2 0.03
0x405130 2 0.03
0x405138 2 0.03
0x405140 2 0.03
0x405148 2 0.03
0x405150 2 0.03
0x405158 2 0.03
0x405160 2 0.03
0x405168 2 0.03
0x405170 2 0.03
0x405178 2 0.03
0x405180 2 0.03
0x405188 2 0.03
0x405190 2 0.03
0x405198 2 0.03
0x4051a0 2 0.03
0x4051a8 2 0.03
0x4051b0 2 0.03
0x4051b8 2 0.03
0x4051c0 2 0.03
0x405378 2 0.03
0x405380 2 0.03
0x405388 1 0.02
0x405390 1 0.02
0x405398 1 0.02
0x4053a0 1 0.02
0x4053a8 1 0.02
0x4053b0 1 0.02
0x4053b8 1 0.02
0x405420 2 0.03
0x405428 2 0.03
0x405430 2 0.03
0x405438 2 0.03
0x405470 2 0.03
0x405478 2 0.03
0x405480 2 0.03
0x405488 2 0.03
0x405490 2 0.03
0x405498 2 0.03
0x4054a0 2 0.03
0x4054a8 2 0.03
0x4054b0 2 0.03
0x4054b8 2 0.03
0x4054c0 2 0.03
0x4057c0 2 0.03
0x4057c8 2 0.03
0x4057d0 2 0.03
0x4057d8 2 0.03
0x4057e0 2 0.03
0x4057e8 2 0.03
0x4057f0 2 0.03
0x4057f8 2 0.03
0x405800 2 0.03
0x405818 2 0.03
0x405820 2 0.03
0x405828 2 0.03
0x405830 2 0.03
0x405838 2 0.03
0x405840 2 0.03
0x405848 2 0.03
0x405850 2 0.03
0x405858 2 0.03
0x405860 2 0.03
0x405868 2 0.03
0x405d00 2 0.03
0x405d08 2 0.03
0x405d10 2 0.03
0x405d18 2 0.03
0x405d20 2 0.03
0x405d28 2 0.03
0x405d30 2 0.03
0x405d38 2 0.03
0x405d40 2 0.03
0x405d48 2 0.03
0x405d50 2 0.03
0x405d58 2 0.03
0x405d60 2 0.03
0x405d68 2 0.03
0x405d70 2 0.03
0x405d88 2 0.03
0x405d90 2 0.03
0x405d98 2 0.03
0x405da0 2 0.03
0x405da8 2 0.03
0x405db0 2 0.03
0x405db8 2 0.03
0x405de0 2 0.03
0x405de8 2 0.03
0x405df0 2 0.03
0x405df8 2 0.03
0x405e00 2 0.03
0x405e38 2 0.03
0x405e40 2 0.03
0x405e48 2 0.03
0x405e50 2 0.03
0x405e58 2 0.03
0x405e60 2 0.03
0x405e68 2 0.03
0x405e70 2 0.03
0x405e78 2 0.03
0x405e80 2 0.03
0x405e88 2 0.03
0x405e90 2 0.03
0x405e98 2 0.03
0x405ea0 2 0.03
0x405ea8 2 0.03
0x405eb0 2 0.03
0x405eb8 2 0.03
0x405ec0 2 0.03
0x405ec8 2 0.03
0x405ed0 2 0.03
0x405ed8 2 0.03
0x405ee0 2 0.03
0x405ee8 2 0.03
0x405ef0 2 0.03
0x405ef8 2 0.03
0x405f00 2 0.03
0x405f08 2 0.03
0x405f10 2 0.03
0x405f18 2 0.03
0x405f20 2 0.03
0x405f28 1 0.02
0x405f30 1 0.02
0x405f48 1 0.02
0x405f50 1 0.02
0x405f58 1 0.02
0x405f60 1 0.02
0x405f68 1 0.02
0x405f70 1 0.02
0x405f78 1 0.02
0x405fb0 1 0.02
0x405fb8 1 0.02
0x405fc0 1 0.02
0x405fe8 2 0.03
0x405ff0 2 0.03
0x405ff8 2 0.03
0x406000 2 0.03
0x406008 2 0.03
0x406010 2 0.03
0x406018 2 0.03
0x406020 2 0.03
0x406028 2 0.03
0x406058 2 0.03
0x406120 2 0.03
0x406128 2 0.03
0x406130 2 0.03
0x406158 2 0.03
0x406160 2 0.03
0x406170 2 0.03
0x406178 2 0.03
0x406180 2 0.03
0x406188 2 0.03
0x406190 2 0.03
0x406198 2 0.03
0x4061c8 2 0.03
0x4061d0 2 0.03
0x4061d8 2 0.03
0x4061e0 2 0.03
0x4061f8 2 0.03
0x406200 2 0.03
0x406208 2 0.03
0x406210 2 0.03
0x406218 2 0.03
0x406220 2 0.03
0x406228 2 0.03
0x406230 2 0.03
0x4067c8 3 0.05
0x4067d0 3 0.05
0x4067d8 3 0.05
0x4067e0 3 0.05
0x4067e8 3 0.05
0x4067f0 3 0.05
0x4067f8 3 0.05
0x406800 3 0.05
0x406808 3 0.05
0x406810 3 0.05
0x406818 3 0.05
0x406820 3 0.05
0x406828 3 0.05
0x406830 3 0.05
0x406838 3 0.05
0x4069e0 2 0.03
0x4069e8 2 0.03
0x4069f0 2 0.03
0x4069f8 2 0.03
0x406a00 2 0.03
0x406a08 2 0.03
0x406e80 3 0.05
0x406e88 3 0.05
0x406e90 3 0.05
0x406e98 3 0.05
0x406eb0 3 0.05
0x406eb8 3 0.05
0x406ec0 3 0.05
0x406ec8 3 0.05
0x406ed0 3 0.05
0x406ed8 3 0.05
0x406ee0 3 0.05
0x406ee8 3 0.05
0x406ef0 3 0.05
0x406ef8 3 0.05
0x406f00 3 0.05
0x407760 2 0.03
0x407768 2 0.03
0x407770 2 0.03
0x407778 2 0.03
0x407780 2 0.03
0x407788 2 0.03
0x407790 2 0.03
0x407798 2 0.03
0x4077a0 2 0.03
0x4077a8 2 0.03
0x4077b0 2 0.03
0x4077b8 1 0.02
0x4077c0 1 0.02
0x4077c8 1 0.02
0x4077d0 1 0.02
0x4077d8 1 0.02
0x4077e0 1 0.02
0x4077e8 1 0.02
0x4077f0 1 0.02
0x407818 1 0.02
0x407820 1 0.02
0x407860 1 0.02
0x407868 1 0.02
0x407870 2 0.03
0x407878 2 0.03
0x407880 2 0.03
0x407888 2 0.03
0x407890 2 0.03
0x407970 2 0.03
0x407978 2 0.03
0x407980 2 0.03
0x407988 2 0.03
0x407990 2 0.03
0x407a20 3 0.05
0x407a28 3 0.05
0x407a30 3 0.05
0x407a40 3 0.05
0x407a48 3 0.05
0x407a50 3 0.05
0x407a58 3 0.05
0x407a60 3 0.05
0x407a68 3 0.05
0x407a90 1 0.02
0x407a98 1 0.02
0x407aa0 1 0.02
0x407aa8 1 0.02
0x407ab0 1 0.02
sim_num_insn_by_pc.end_dist

ld_text_base             0x00400000 # target_name text (code) segment base
ld_text_size                  31728 # target_name text (code) size in bytes
ld_data_base             0x10000000 # target_name initialized data segment base
ld_data_size                   4096 # target_name init'ed `.data' and uninit'ed `.bss' size in bytes
ld_stack_base            0x7fffc000 # target_name stack segment base (highest address in stack)
ld_stack_size                 16384 # target_name initial stack size
ld_prog_entry            0x00400140 # target_name entry point (initial PC)
ld_environ_base          0x7fff8000 # target_name environment base address address
ld_target_big_endian              0 # target executable endian-ness, non-zero if big endian
mem.page_count                   14 # total number of pages allocated
mem.page_mem                    56k # total size of memory pages allocated
mem.ptab_misses                  14 # total first level page table misses
mem.ptab_accesses            231872 # total page table accesses
mem.ptab_miss_rate           0.0001 # first level page table miss rate

+--------------------------------------------------------------+
| effective code range:         [0, fffffff8]                  |
| effective bpred count:        0                              |
| effective sim cycles:         0                              |
| effective bpred misses:       0                              |
| effective icache misses:      0                              |
+--------------------------------------------------------------+

