sim-profile: SimpleScalar/PISA Tool Set version 3.0 of August, 2003.
Copyright (c) 1994-2003 by Todd M. Austin, Ph.D. and SimpleScalar, LLC.
All Rights Reserved. This version of SimpleScalar is licensed for academic
non-commercial use.  No portion of this work may be used by any commercial
entity, or for any commercial purpose, without the prior written permission
of SimpleScalar, LLC (info@simplescalar.com).

sim: command line: /home/sudiptac/sudiptac/Work/simplesim-3.0/sim-profile -pcstat sim_num_insn bsort100 

sim: simulation started @ Wed Aug 10 19:26:07 2011, options follow:

sim-profile: This simulator implements a functional simulator with
profiling support.  Run with the `-h' flag to see profiling options
available.

# -config                     # load configuration from a file
# -dumpconfig                 # dump configuration to a file
# -h                    false # print help message    
# -v                    false # verbose operation     
# -d                    false # enable debug message  
# -i                    false # start in Dlite debugger
-seed                       1 # random number generator seed (0 for timer seed)
# -q                    false # initialize and terminate immediately
# -chkpt               <null> # restore EIO trace execution from <fname>
# -redir:sim           <null> # redirect simulator output to file (non-interactive only)
# -redir:prog          <null> # redirect simulated target_name output to file
-nice                       0 # simulator scheduling priority
-max:inst                   0 # maximum number of inst's to execute
-all                    false # enable all profile options
-iclass                 false # enable instruction class profiling
-iprof                  false # enable instruction profiling
-brprof                 false # enable branch instruction profiling
-amprof                 false # enable address mode profiling
-segprof                false # enable load/store address segment profiling
-tsymprof               false # enable text symbol profiling
-taddrprof              false # enable text address profiling
-dsymprof               false # enable data symbol profiling
-internal               false # include compiler-internal symbols during symbol profiling
# -pcstat        sim_num_insn # profile stat(s) against text addr's (mult uses ok)

sim: ** starting functional simulation **

sim: ** simulation statistics **
sim_num_insn                   7858 # total number of instructions executed
sim_num_refs                   3992 # total number of loads and stores executed
sim_elapsed_time                  1 # total simulation time in seconds
sim_inst_rate             7858.0000 # simulation speed (in insts/sec)

sim_num_insn_by_pc     # total number of instructions executed (by text address)
sim_num_insn_by_pc.count = 812
sim_num_insn_by_pc.total = 7857
sim_num_insn_by_pc.imin = 0x400140
sim_num_insn_by_pc.imax = 0x4057d8
sim_num_insn_by_pc.average =   9.6761
sim_num_insn_by_pc.std_dev =  48.9128
sim_num_insn_by_pc.overflows = 0
# pdf == prob dist fn, cdf == cumulative dist fn
#          index      count    pdf 
sim_num_insn_by_pc.start_dist
0x400140 1 0.01
0x400148 1 0.01
0x400150 1 0.01
0x400158 1 0.01
0x400160 1 0.01
0x400168 1 0.01
0x400170 1 0.01
0x400178 1 0.01
0x400180 1 0.01
0x400188 1 0.01
0x400190 1 0.01
0x400198 1 0.01
0x4001a0 1 0.01
0x4001a8 1 0.01
0x4001b0 1 0.01
0x4001b8 1 0.01
0x4001c0 1 0.01
0x4001c8 1 0.01
0x4001d0 1 0.01
0x4001d8 1 0.01
0x4001e0 1 0.01
0x4001f0 1 0.01
0x4001f8 1 0.01
0x400200 1 0.01
0x400208 1 0.01
0x400210 1 0.01
0x400218 1 0.01
0x400220 1 0.01
0x400228 1 0.01
0x400230 1 0.01
0x400238 1 0.01
0x400240 1 0.01
0x400248 1 0.01
0x400250 1 0.01
0x400258 1 0.01
0x400260 1 0.01
0x400268 1 0.01
0x400270 1 0.01
0x400278 1 0.01
0x400280 1 0.01
0x400288 1 0.01
0x400290 1 0.01
0x400298 100 1.27
0x4002a0 100 1.27
0x4002a8 100 1.27
0x4002b0 100 1.27
0x4002b8 100 1.27
0x4002c0 100 1.27
0x4002c8 100 1.27
0x4002d0 100 1.27
0x4002d8 100 1.27
0x4002e0 1 0.01
0x4002e8 1 0.01
0x4002f0 1 0.01
0x4002f8 1 0.01
0x400300 1 0.01
0x400308 1 0.01
0x400310 1 0.01
0x400318 99 1.26
0x400320 99 1.26
0x400328 99 1.26
0x400330 99 1.26
0x400338 99 1.26
0x400340 99 1.26
0x400360 99 1.26
0x400368 99 1.26
0x400370 99 1.26
0x400378 99 1.26
0x400380 1 0.01
0x4003a0 1 0.01
0x4003b0 1 0.01
0x4003b8 1 0.01
0x4003c0 1 0.01
0x4003c8 1 0.01
0x4003d0 1 0.01
0x4003d8 1 0.01
0x4003e0 1 0.01
0x4003e8 1 0.01
0x4003f0 1 0.01
0x4003f8 1 0.01
0x400400 1 0.01
0x400408 1 0.01
0x400410 1 0.01
0x400418 1 0.01
0x400420 1 0.01
0x400428 1 0.01
0x400430 1 0.01
0x400438 1 0.01
0x400440 1 0.01
0x400448 1 0.01
0x400450 1 0.01
0x400458 1 0.01
0x400460 1 0.01
0x400510 1 0.01
0x400518 1 0.01
0x400520 1 0.01
0x400528 1 0.01
0x400530 1 0.01
0x400580 1 0.01
0x400588 1 0.01
0x400590 1 0.01
0x400598 1 0.01
0x4005a0 1 0.01
0x4005a8 1 0.01
0x4005b0 1 0.01
0x4005c0 1 0.01
0x4005c8 1 0.01
0x4005d0 1 0.01
0x4005d8 1 0.01
0x4005e0 1 0.01
0x4005e8 1 0.01
0x4005f0 1 0.01
0x4005f8 1 0.01
0x400600 1 0.01
0x400608 1 0.01
0x400610 1 0.01
0x400618 1 0.01
0x400628 1 0.01
0x400630 1 0.01
0x400638 1 0.01
0x400640 1 0.01
0x400648 1 0.01
0x400870 1 0.01
0x400890 4 0.05
0x400898 4 0.05
0x4008a0 4 0.05
0x4008a8 4 0.05
0x4008b0 4 0.05
0x4008b8 4 0.05
0x4008c0 4 0.05
0x4008c8 1 0.01
0x4008d0 1 0.01
0x4008d8 1 0.01
0x4008e0 1 0.01
0x4008e8 1 0.01
0x4008f0 1 0.01
0x4008f8 3 0.04
0x400900 3 0.04
0x400918 3 0.04
0x400920 3 0.04
0x400928 3 0.04
0x400930 3 0.04
0x400938 3 0.04
0x400940 3 0.04
0x400948 1 0.01
0x400950 1 0.01
0x400958 3 0.04
0x400960 3 0.04
0x400968 3 0.04
0x400970 3 0.04
0x400988 3 0.04
0x400990 3 0.04
0x400998 3 0.04
0x4009a0 3 0.04
0x4009c8 3 0.04
0x4009d0 3 0.04
0x4009d8 3 0.04
0x4009e0 2 0.03
0x4009e8 2 0.03
0x4009f0 2 0.03
0x4009f8 2 0.03
0x400a00 2 0.03
0x400a18 3 0.04
0x400a20 3 0.04
0x400a28 1 0.01
0x400a30 1 0.01
0x400a38 1 0.01
0x400a40 1 0.01
0x400a48 3 0.04
0x400a50 3 0.04
0x400a58 2 0.03
0x400a60 2 0.03
0x400a68 2 0.03
0x400a70 2 0.03
0x400a78 1 0.01
0x400a80 1 0.01
0x400a88 1 0.01
0x400a90 1 0.01
0x400a98 1 0.01
0x400ab8 1 0.01
0x400ac0 3 0.04
0x400ac8 3 0.04
0x400ad0 3 0.04
0x400ad8 4 0.05
0x400ae0 4 0.05
0x400ae8 4 0.05
0x400af0 4 0.05
0x400af8 4 0.05
0x400b00 4 0.05
0x400b10 1 0.01
0x400b18 1 0.01
0x400b20 1 0.01
0x400b28 1 0.01
0x400b30 1 0.01
0x400b38 1 0.01
0x400b58 1 0.01
0x400b60 1 0.01
0x400b68 1 0.01
0x400b70 1 0.01
0x400b90 1 0.01
0x400b98 1 0.01
0x400ba0 1 0.01
0x400ba8 1 0.01
0x400bb0 1 0.01
0x400bb8 1 0.01
0x400bc0 1 0.01
0x400bc8 1 0.01
0x400bd0 1 0.01
0x400bd8 1 0.01
0x400be0 1 0.01
0x400be8 1 0.01
0x400bf0 1 0.01
0x400bf8 1 0.01
0x400c00 1 0.01
0x400c08 1 0.01
0x400c10 1 0.01
0x400c18 1 0.01
0x400c20 1 0.01
0x400c28 1 0.01
0x400c30 1 0.01
0x400c38 1 0.01
0x400c40 1 0.01
0x400c48 1 0.01
0x400c58 1 0.01
0x400c60 1 0.01
0x400c68 1 0.01
0x400c70 1 0.01
0x400c78 1 0.01
0x400c80 1 0.01
0x400c88 1 0.01
0x400c90 1 0.01
0x400c98 1 0.01
0x400ca0 1 0.01
0x400ca8 1 0.01
0x400cb0 1 0.01
0x400cb8 1 0.01
0x400cc0 1 0.01
0x400cc8 1 0.01
0x400cd0 1 0.01
0x400cd8 1 0.01
0x400ce0 1 0.01
0x400ce8 1 0.01
0x400cf0 1 0.01
0x400cf8 1 0.01
0x400d00 1 0.01
0x400d08 1 0.01
0x400d10 1 0.01
0x400d18 1 0.01
0x400d28 1 0.01
0x400d30 1 0.01
0x400d38 1 0.01
0x400d40 1 0.01
0x400d48 1 0.01
0x400d50 1 0.01
0x400d58 1 0.01
0x400d60 1 0.01
0x400d68 1 0.01
0x400d70 1 0.01
0x400d78 1 0.01
0x400d80 1 0.01
0x400d88 1 0.01
0x400d90 1 0.01
0x400d98 1 0.01
0x400da0 1 0.01
0x400da8 1 0.01
0x400dd8 1 0.01
0x400de0 1 0.01
0x400df0 1 0.01
0x400df8 1 0.01
0x400e10 1 0.01
0x400e18 1 0.01
0x400e20 1 0.01
0x400e28 1 0.01
0x400e38 1 0.01
0x400e40 1 0.01
0x400e48 1 0.01
0x400e50 1 0.01
0x400e58 1 0.01
0x4010e0 1 0.01
0x4010e8 1 0.01
0x4010f0 1 0.01
0x4010f8 1 0.01
0x401108 1 0.01
0x401110 1 0.01
0x401118 1 0.01
0x401120 1 0.01
0x401128 1 0.01
0x401130 1 0.01
0x401138 1 0.01
0x401140 1 0.01
0x401148 1 0.01
0x401150 1 0.01
0x401158 1 0.01
0x401160 1 0.01
0x401168 1 0.01
0x401170 1 0.01
0x401178 1 0.01
0x401180 1 0.01
0x401188 1 0.01
0x401190 1 0.01
0x401198 1 0.01
0x4011a0 1 0.01
0x4011a8 1 0.01
0x4011b0 1 0.01
0x4011c8 1 0.01
0x4011d0 1 0.01
0x4011d8 1 0.01
0x4011e0 1 0.01
0x4011e8 1 0.01
0x4011f0 1 0.01
0x401200 1 0.01
0x401208 1 0.01
0x4015a0 1 0.01
0x4015a8 1 0.01
0x4015b0 1 0.01
0x4015b8 1 0.01
0x4015c0 1 0.01
0x4015c8 1 0.01
0x4015d0 1 0.01
0x4015d8 1 0.01
0x4015e0 1 0.01
0x4015e8 1 0.01
0x4015f0 1 0.01
0x4015f8 1 0.01
0x401600 1 0.01
0x401608 1 0.01
0x401610 1 0.01
0x401618 1 0.01
0x401620 1 0.01
0x401628 1 0.01
0x401630 1 0.01
0x401638 1 0.01
0x401640 1 0.01
0x401648 1 0.01
0x401650 1 0.01
0x401658 1 0.01
0x401660 1 0.01
0x401668 1 0.01
0x401750 1 0.01
0x401758 1 0.01
0x401760 1 0.01
0x401768 1 0.01
0x401770 1 0.01
0x401778 1 0.01
0x401780 1 0.01
0x401790 1 0.01
0x401798 1 0.01
0x4017a0 1 0.01
0x4017a8 1 0.01
0x4017b0 1 0.01
0x4017b8 1 0.01
0x4017c0 1 0.01
0x4017c8 1 0.01
0x4017d0 1 0.01
0x4017d8 1 0.01
0x4017e0 1 0.01
0x4017e8 1 0.01
0x4017f0 1 0.01
0x4017f8 1 0.01
0x401800 1 0.01
0x401808 1 0.01
0x401810 1 0.01
0x401aa8 1 0.01
0x401ab0 1 0.01
0x401ab8 1 0.01
0x401ac0 1 0.01
0x401ac8 1 0.01
0x401ad0 1 0.01
0x401ad8 1 0.01
0x401ae0 1 0.01
0x401f38 2 0.03
0x401f40 2 0.03
0x401f48 2 0.03
0x401f50 2 0.03
0x401f58 2 0.03
0x401f60 2 0.03
0x401f68 2 0.03
0x401f70 2 0.03
0x401f78 2 0.03
0x401f80 2 0.03
0x401f88 2 0.03
0x401f90 2 0.03
0x401f98 2 0.03
0x401fa0 2 0.03
0x401fa8 2 0.03
0x401fb0 2 0.03
0x401fb8 2 0.03
0x401fc0 2 0.03
0x401fc8 2 0.03
0x401fd0 2 0.03
0x401fd8 2 0.03
0x401fe0 2 0.03
0x401fe8 2 0.03
0x401ff0 2 0.03
0x401ff8 2 0.03
0x402000 2 0.03
0x402008 2 0.03
0x402010 2 0.03
0x4021c8 2 0.03
0x4021d0 2 0.03
0x4021d8 1 0.01
0x4021e0 1 0.01
0x4021e8 1 0.01
0x4021f0 1 0.01
0x4021f8 1 0.01
0x402200 1 0.01
0x402208 1 0.01
0x402270 2 0.03
0x402278 2 0.03
0x402280 2 0.03
0x402288 2 0.03
0x4022c0 2 0.03
0x4022c8 2 0.03
0x4022d0 2 0.03
0x4022d8 2 0.03
0x4022e0 2 0.03
0x4022e8 2 0.03
0x4022f0 2 0.03
0x4022f8 2 0.03
0x402300 2 0.03
0x402308 2 0.03
0x402310 2 0.03
0x402610 2 0.03
0x402618 2 0.03
0x402620 2 0.03
0x402628 2 0.03
0x402630 2 0.03
0x402638 2 0.03
0x402640 2 0.03
0x402648 2 0.03
0x402650 2 0.03
0x402668 2 0.03
0x402670 2 0.03
0x402678 2 0.03
0x402680 2 0.03
0x402688 2 0.03
0x402690 2 0.03
0x402698 2 0.03
0x4026a0 2 0.03
0x4026a8 2 0.03
0x4026b0 2 0.03
0x4026b8 2 0.03
0x402b50 2 0.03
0x402b58 2 0.03
0x402b60 2 0.03
0x402b68 2 0.03
0x402b70 2 0.03
0x402b78 2 0.03
0x402b80 2 0.03
0x402b88 2 0.03
0x402b90 2 0.03
0x402b98 2 0.03
0x402ba0 2 0.03
0x402ba8 2 0.03
0x402bb0 2 0.03
0x402bb8 2 0.03
0x402bc0 2 0.03
0x402bd8 2 0.03
0x402be0 2 0.03
0x402be8 2 0.03
0x402bf0 2 0.03
0x402bf8 2 0.03
0x402c00 2 0.03
0x402c08 2 0.03
0x402c30 2 0.03
0x402c38 2 0.03
0x402c40 2 0.03
0x402c48 2 0.03
0x402c50 2 0.03
0x402c88 2 0.03
0x402c90 2 0.03
0x402c98 2 0.03
0x402ca0 2 0.03
0x402ca8 2 0.03
0x402cb0 2 0.03
0x402cb8 2 0.03
0x402cc0 2 0.03
0x402cc8 2 0.03
0x402cd0 2 0.03
0x402cd8 2 0.03
0x402ce0 2 0.03
0x402ce8 2 0.03
0x402cf0 2 0.03
0x402cf8 2 0.03
0x402d00 2 0.03
0x402d08 2 0.03
0x402d10 2 0.03
0x402d18 2 0.03
0x402d20 2 0.03
0x402d28 2 0.03
0x402d30 2 0.03
0x402d38 2 0.03
0x402d40 2 0.03
0x402d48 2 0.03
0x402d50 2 0.03
0x402d58 2 0.03
0x402d60 2 0.03
0x402d68 2 0.03
0x402d70 2 0.03
0x402d78 1 0.01
0x402d80 1 0.01
0x402d98 1 0.01
0x402da0 1 0.01
0x402da8 1 0.01
0x402db0 1 0.01
0x402db8 1 0.01
0x402dc0 1 0.01
0x402dc8 1 0.01
0x402e00 1 0.01
0x402e08 1 0.01
0x402e10 1 0.01
0x402e38 2 0.03
0x402e40 2 0.03
0x402e48 2 0.03
0x402e50 2 0.03
0x402e58 2 0.03
0x402e60 2 0.03
0x402e68 2 0.03
0x402e70 2 0.03
0x402e78 2 0.03
0x402ea8 2 0.03
0x402f70 2 0.03
0x402f78 2 0.03
0x402f80 2 0.03
0x402fa8 2 0.03
0x402fb0 2 0.03
0x402fc0 2 0.03
0x402fc8 2 0.03
0x402fd0 2 0.03
0x402fd8 2 0.03
0x402fe0 2 0.03
0x402fe8 2 0.03
0x403018 2 0.03
0x403020 2 0.03
0x403028 2 0.03
0x403030 2 0.03
0x403048 2 0.03
0x403050 2 0.03
0x403058 2 0.03
0x403060 2 0.03
0x403068 2 0.03
0x403070 2 0.03
0x403078 2 0.03
0x403080 2 0.03
0x403618 3 0.04
0x403620 3 0.04
0x403628 3 0.04
0x403630 3 0.04
0x403638 3 0.04
0x403640 3 0.04
0x403648 3 0.04
0x403650 3 0.04
0x403658 3 0.04
0x403660 3 0.04
0x403668 3 0.04
0x403670 3 0.04
0x403678 3 0.04
0x403680 3 0.04
0x403688 3 0.04
0x403690 1 0.01
0x403698 1 0.01
0x4036a0 1 0.01
0x4036a8 1 0.01
0x4036b0 1 0.01
0x4036b8 1 0.01
0x4036c0 1 0.01
0x4036c8 1 0.01
0x4036d0 1 0.01
0x4036d8 1 0.01
0x4036e8 1 0.01
0x4036f0 1 0.01
0x4036f8 1 0.01
0x403700 1 0.01
0x403708 1 0.01
0x403710 1 0.01
0x403718 1 0.01
0x403720 1 0.01
0x403728 1 0.01
0x403730 1 0.01
0x403738 1 0.01
0x403740 1 0.01
0x403748 1 0.01
0x403750 1 0.01
0x403758 1 0.01
0x403760 1 0.01
0x403768 1 0.01
0x403770 1 0.01
0x403778 1 0.01
0x403780 1 0.01
0x403788 1 0.01
0x403790 1 0.01
0x403798 1 0.01
0x4037a0 1 0.01
0x4037a8 1 0.01
0x4037f8 1 0.01
0x403800 1 0.01
0x403808 1 0.01
0x403810 1 0.01
0x403818 1 0.01
0x403820 1 0.01
0x403828 1 0.01
0x403840 1 0.01
0x403848 1 0.01
0x403850 1 0.01
0x403858 1 0.01
0x403860 1 0.01
0x403868 1 0.01
0x403870 1 0.01
0x403878 1 0.01
0x403880 1 0.01
0x403888 1 0.01
0x403890 1 0.01
0x403898 1 0.01
0x4038a0 1 0.01
0x4038f0 1 0.01
0x4038f8 1 0.01
0x403900 1 0.01
0x403908 1 0.01
0x403910 1 0.01
0x403918 1 0.01
0x403920 1 0.01
0x403928 1 0.01
0x403930 1 0.01
0x403938 1 0.01
0x403940 1 0.01
0x403948 1 0.01
0x403950 1 0.01
0x403958 1 0.01
0x403960 1 0.01
0x403968 1 0.01
0x403970 1 0.01
0x403978 1 0.01
0x403980 1 0.01
0x403988 1 0.01
0x403990 1 0.01
0x403998 1 0.01
0x4039a0 1 0.01
0x4039a8 1 0.01
0x4039b0 1 0.01
0x4039b8 1 0.01
0x4039c0 1 0.01
0x4039c8 1 0.01
0x403a80 1 0.01
0x403a88 1 0.01
0x403a90 1 0.01
0x403a98 1 0.01
0x403aa0 1 0.01
0x403bf0 1 0.01
0x403bf8 1 0.01
0x403f08 1 0.01
0x403f10 1 0.01
0x403f18 1 0.01
0x403f20 1 0.01
0x403f28 1 0.01
0x403f30 1 0.01
0x403f38 1 0.01
0x403f40 1 0.01
0x403f48 1 0.01
0x403f50 1 0.01
0x403f58 1 0.01
0x403f60 1 0.01
0x403f88 1 0.01
0x403f90 1 0.01
0x403fc0 1 0.01
0x403fc8 1 0.01
0x403fd0 1 0.01
0x403fd8 1 0.01
0x404180 2 0.03
0x404188 2 0.03
0x404190 2 0.03
0x404198 2 0.03
0x4041a0 2 0.03
0x4041a8 2 0.03
0x404620 1 0.01
0x404628 1 0.01
0x404630 1 0.01
0x404638 1 0.01
0x404670 1 0.01
0x404678 1 0.01
0x404680 1 0.01
0x404688 1 0.01
0x404690 1 0.01
0x404698 1 0.01
0x4046a0 3 0.04
0x4046a8 3 0.04
0x4046b0 3 0.04
0x4046b8 3 0.04
0x4046c0 3 0.04
0x4046c8 3 0.04
0x4046d0 3 0.04
0x4046d8 3 0.04
0x4046e0 2 0.03
0x4046e8 2 0.03
0x4046f0 2 0.03
0x4046f8 2 0.03
0x404700 2 0.03
0x404708 2 0.03
0x404710 1 0.01
0x404718 1 0.01
0x404720 1 0.01
0x404728 1 0.01
0x4047a8 1 0.01
0x4047b0 1 0.01
0x4047b8 1 0.01
0x4047c0 3 0.04
0x4047c8 3 0.04
0x4047d0 3 0.04
0x4047d8 3 0.04
0x4047e0 3 0.04
0x4047e8 3 0.04
0x4047f0 3 0.04
0x4047f8 3 0.04
0x404800 3 0.04
0x404808 3 0.04
0x404810 4 0.05
0x404818 4 0.05
0x404820 4 0.05
0x404828 4 0.05
0x404830 4 0.05
0x404838 4 0.05
0x404840 4 0.05
0x404848 4 0.05
0x404850 4 0.05
0x404858 4 0.05
0x404888 4 0.05
0x404890 4 0.05
0x404898 4 0.05
0x4048a0 390 4.96
0x4048a8 390 4.96
0x4048b0 390 4.96
0x4048b8 390 4.96
0x4048c0 390 4.96
0x4048c8 390 4.96
0x4048d0 390 4.96
0x4048d8 390 4.96
0x4048e0 390 4.96
0x4048e8 390 4.96
0x4048f0 390 4.96
0x4048f8 390 4.96
0x404900 4 0.05
0x404908 4 0.05
0x404910 4 0.05
0x404918 12 0.15
0x404920 12 0.15
0x404928 12 0.15
0x404930 12 0.15
0x404938 4 0.05
0x404940 4 0.05
0x404968 4 0.05
0x404970 4 0.05
0x404b40 2 0.03
0x404b48 2 0.03
0x404b50 2 0.03
0x404b58 2 0.03
0x404b60 2 0.03
0x404b68 2 0.03
0x404b70 2 0.03
0x404b78 2 0.03
0x404b80 2 0.03
0x404b88 2 0.03
0x404b90 2 0.03
0x404b98 1 0.01
0x404ba0 1 0.01
0x404ba8 1 0.01
0x404bb0 1 0.01
0x404bb8 1 0.01
0x404bc0 1 0.01
0x404bc8 1 0.01
0x404bd0 1 0.01
0x404bf8 1 0.01
0x404c00 1 0.01
0x404c40 1 0.01
0x404c48 1 0.01
0x404c50 2 0.03
0x404c58 2 0.03
0x404c60 2 0.03
0x404c68 2 0.03
0x404c70 2 0.03
0x404d50 2 0.03
0x404d58 2 0.03
0x404d60 2 0.03
0x404d68 2 0.03
0x404d70 2 0.03
0x404e00 3 0.04
0x404e08 3 0.04
0x404e10 3 0.04
0x404e18 3 0.04
0x404e30 3 0.04
0x404e38 3 0.04
0x404e40 3 0.04
0x404e48 3 0.04
0x404e50 3 0.04
0x404e58 3 0.04
0x404e60 3 0.04
0x404e68 3 0.04
0x404e70 3 0.04
0x404e78 3 0.04
0x404e80 3 0.04
0x4056f0 1 0.01
0x4056f8 1 0.01
0x405700 1 0.01
0x405708 1 0.01
0x405710 1 0.01
0x405790 3 0.04
0x405798 3 0.04
0x4057a0 3 0.04
0x4057b0 3 0.04
0x4057b8 3 0.04
0x4057c0 3 0.04
0x4057c8 3 0.04
0x4057d0 3 0.04
0x4057d8 3 0.04
sim_num_insn_by_pc.end_dist

ld_text_base             0x00400000 # target_name text (code) segment base
ld_text_size                  22704 # target_name text (code) size in bytes
ld_data_base             0x10000000 # target_name initialized data segment base
ld_data_size                   4096 # target_name init'ed `.data' and uninit'ed `.bss' size in bytes
ld_stack_base            0x7fffc000 # target_name stack segment base (highest address in stack)
ld_stack_size                 16384 # target_name initial stack size
ld_prog_entry            0x00400140 # target_name entry point (initial PC)
ld_environ_base          0x7fff8000 # target_name environment base address address
ld_target_big_endian              0 # target executable endian-ness, non-zero if big endian
mem.page_count                   12 # total number of pages allocated
mem.page_mem                    48k # total size of memory pages allocated
mem.ptab_misses                 112 # total first level page table misses
mem.ptab_accesses            182546 # total page table accesses
mem.ptab_miss_rate           0.0006 # first level page table miss rate

+--------------------------------------------------------------+
| effective code range:         [0, fffffff8]                  |
| effective bpred count:        0                              |
| effective sim cycles:         0                              |
| effective bpred misses:       0                              |
| effective icache misses:      0                              |
+--------------------------------------------------------------+

