sim-profile: SimpleScalar/PISA Tool Set version 3.0 of August, 2003.
Copyright (c) 1994-2003 by Todd M. Austin, Ph.D. and SimpleScalar, LLC.
All Rights Reserved. This version of SimpleScalar is licensed for academic
non-commercial use.  No portion of this work may be used by any commercial
entity, or for any commercial purpose, without the prior written permission
of SimpleScalar, LLC (info@simplescalar.com).

sim: command line: /home/sudiptac/sudiptac/Work/simplesim-3.0/sim-profile -pcstat sim_num_insn fdct 

sim: simulation started @ Thu Aug 18 15:58:31 2011, options follow:

sim-profile: This simulator implements a functional simulator with
profiling support.  Run with the `-h' flag to see profiling options
available.

# -config                     # load configuration from a file
# -dumpconfig                 # dump configuration to a file
# -h                    false # print help message    
# -v                    false # verbose operation     
# -d                    false # enable debug message  
# -i                    false # start in Dlite debugger
-seed                       1 # random number generator seed (0 for timer seed)
# -q                    false # initialize and terminate immediately
# -chkpt               <null> # restore EIO trace execution from <fname>
# -redir:sim           <null> # redirect simulator output to file (non-interactive only)
# -redir:prog          <null> # redirect simulated target_name output to file
-nice                       0 # simulator scheduling priority
-max:inst                   0 # maximum number of inst's to execute
-all                    false # enable all profile options
-iclass                 false # enable instruction class profiling
-iprof                  false # enable instruction profiling
-brprof                 false # enable branch instruction profiling
-amprof                 false # enable address mode profiling
-segprof                false # enable load/store address segment profiling
-tsymprof               false # enable text symbol profiling
-taddrprof              false # enable text address profiling
-dsymprof               false # enable data symbol profiling
-internal               false # include compiler-internal symbols during symbol profiling
# -pcstat        sim_num_insn # profile stat(s) against text addr's (mult uses ok)

sim: ** starting functional simulation **

sim: ** simulation statistics **
sim_num_insn                   7729 # total number of instructions executed
sim_num_refs                   4009 # total number of loads and stores executed
sim_elapsed_time                  1 # total simulation time in seconds
sim_inst_rate             7729.0000 # simulation speed (in insts/sec)

sim_num_insn_by_pc     # total number of instructions executed (by text address)
sim_num_insn_by_pc.count = 1042
sim_num_insn_by_pc.total = 7728
sim_num_insn_by_pc.imin = 0x400140
sim_num_insn_by_pc.imax = 0x405e70
sim_num_insn_by_pc.average =   7.4165
sim_num_insn_by_pc.std_dev =  41.4079
sim_num_insn_by_pc.overflows = 0
# pdf == prob dist fn, cdf == cumulative dist fn
#          index      count    pdf 
sim_num_insn_by_pc.start_dist
0x400140 1 0.01
0x400148 1 0.01
0x400150 1 0.01
0x400158 1 0.01
0x400160 1 0.01
0x400168 1 0.01
0x400170 1 0.01
0x400178 1 0.01
0x400180 1 0.01
0x400188 1 0.01
0x400190 1 0.01
0x400198 1 0.01
0x4001a0 1 0.01
0x4001a8 1 0.01
0x4001b0 1 0.01
0x4001b8 1 0.01
0x4001c0 1 0.01
0x4001c8 1 0.01
0x4001d0 1 0.01
0x4001d8 1 0.01
0x4001e0 1 0.01
0x4001f0 1 0.01
0x4001f8 1 0.01
0x400200 1 0.01
0x400208 1 0.01
0x400210 1 0.01
0x400218 1 0.01
0x400220 1 0.01
0x400228 1 0.01
0x400230 1 0.01
0x400238 1 0.01
0x400240 1 0.01
0x400248 1 0.01
0x400250 1 0.01
0x400258 1 0.01
0x400260 1 0.01
0x400268 1 0.01
0x400270 8 0.10
0x400278 8 0.10
0x400280 8 0.10
0x400288 8 0.10
0x400290 8 0.10
0x400298 8 0.10
0x4002a0 8 0.10
0x4002a8 8 0.10
0x4002b0 8 0.10
0x4002b8 8 0.10
0x4002c0 8 0.10
0x4002c8 8 0.10
0x4002d0 8 0.10
0x4002d8 8 0.10
0x4002e0 8 0.10
0x4002e8 8 0.10
0x4002f0 8 0.10
0x4002f8 8 0.10
0x400300 8 0.10
0x400308 8 0.10
0x400310 8 0.10
0x400318 8 0.10
0x400320 8 0.10
0x400328 8 0.10
0x400330 8 0.10
0x400338 8 0.10
0x400340 8 0.10
0x400348 8 0.10
0x400350 8 0.10
0x400358 8 0.10
0x400360 8 0.10
0x400368 8 0.10
0x400370 8 0.10
0x400378 8 0.10
0x400380 8 0.10
0x400388 8 0.10
0x400390 8 0.10
0x400398 8 0.10
0x4003a0 8 0.10
0x4003a8 8 0.10
0x4003b0 8 0.10
0x4003b8 8 0.10
0x4003c0 8 0.10
0x4003c8 8 0.10
0x4003d0 8 0.10
0x4003d8 8 0.10
0x4003e0 8 0.10
0x4003e8 8 0.10
0x4003f0 8 0.10
0x4003f8 8 0.10
0x400400 8 0.10
0x400408 8 0.10
0x400410 8 0.10
0x400418 8 0.10
0x400420 8 0.10
0x400428 8 0.10
0x400430 8 0.10
0x400438 8 0.10
0x400440 8 0.10
0x400448 8 0.10
0x400450 8 0.10
0x400458 8 0.10
0x400460 8 0.10
0x400468 8 0.10
0x400470 8 0.10
0x400478 8 0.10
0x400480 8 0.10
0x400488 8 0.10
0x400490 8 0.10
0x400498 8 0.10
0x4004a0 8 0.10
0x4004a8 8 0.10
0x4004b0 8 0.10
0x4004b8 8 0.10
0x4004c0 8 0.10
0x4004c8 8 0.10
0x4004d0 8 0.10
0x4004d8 8 0.10
0x4004e0 8 0.10
0x4004e8 8 0.10
0x4004f0 8 0.10
0x4004f8 8 0.10
0x400500 8 0.10
0x400508 8 0.10
0x400510 8 0.10
0x400518 8 0.10
0x400520 8 0.10
0x400528 8 0.10
0x400530 8 0.10
0x400538 8 0.10
0x400540 8 0.10
0x400548 8 0.10
0x400550 8 0.10
0x400558 8 0.10
0x400560 8 0.10
0x400568 8 0.10
0x400570 8 0.10
0x400578 8 0.10
0x400580 8 0.10
0x400588 1 0.01
0x400590 1 0.01
0x400598 1 0.01
0x4005a0 1 0.01
0x4005a8 1 0.01
0x4005b0 1 0.01
0x4005b8 1 0.01
0x4005c0 1 0.01
0x4005c8 1 0.01
0x4005d0 1 0.01
0x4005d8 1 0.01
0x4005e0 1 0.01
0x4005e8 1 0.01
0x4005f0 1 0.01
0x4005f8 1 0.01
0x400600 1 0.01
0x400608 1 0.01
0x400610 1 0.01
0x400618 1 0.01
0x400620 1 0.01
0x400628 1 0.01
0x400630 8 0.10
0x400638 8 0.10
0x400640 8 0.10
0x400648 8 0.10
0x400650 8 0.10
0x400658 8 0.10
0x400660 8 0.10
0x400668 8 0.10
0x400670 8 0.10
0x400678 8 0.10
0x400680 8 0.10
0x400688 8 0.10
0x400690 8 0.10
0x400698 8 0.10
0x4006a0 8 0.10
0x4006a8 8 0.10
0x4006b0 8 0.10
0x4006b8 8 0.10
0x4006c0 8 0.10
0x4006c8 8 0.10
0x4006d0 8 0.10
0x4006d8 8 0.10
0x4006e0 8 0.10
0x4006e8 8 0.10
0x4006f0 8 0.10
0x4006f8 8 0.10
0x400700 8 0.10
0x400708 8 0.10
0x400710 8 0.10
0x400718 8 0.10
0x400720 8 0.10
0x400728 8 0.10
0x400730 8 0.10
0x400738 8 0.10
0x400740 8 0.10
0x400748 8 0.10
0x400750 8 0.10
0x400758 8 0.10
0x400760 8 0.10
0x400768 8 0.10
0x400770 8 0.10
0x400778 8 0.10
0x400780 8 0.10
0x400788 8 0.10
0x400790 8 0.10
0x400798 8 0.10
0x4007a0 8 0.10
0x4007a8 8 0.10
0x4007b0 8 0.10
0x4007b8 8 0.10
0x4007c0 8 0.10
0x4007c8 8 0.10
0x4007d0 8 0.10
0x4007d8 8 0.10
0x4007e0 8 0.10
0x4007e8 8 0.10
0x4007f0 8 0.10
0x4007f8 8 0.10
0x400800 8 0.10
0x400808 8 0.10
0x400810 8 0.10
0x400818 8 0.10
0x400820 8 0.10
0x400828 8 0.10
0x400830 8 0.10
0x400838 8 0.10
0x400840 8 0.10
0x400848 8 0.10
0x400850 8 0.10
0x400858 8 0.10
0x400860 8 0.10
0x400868 8 0.10
0x400870 8 0.10
0x400878 8 0.10
0x400880 8 0.10
0x400888 8 0.10
0x400890 8 0.10
0x400898 8 0.10
0x4008a0 8 0.10
0x4008a8 8 0.10
0x4008b0 8 0.10
0x4008b8 8 0.10
0x4008c0 8 0.10
0x4008c8 8 0.10
0x4008d0 8 0.10
0x4008d8 8 0.10
0x4008e0 8 0.10
0x4008e8 8 0.10
0x4008f0 8 0.10
0x4008f8 8 0.10
0x400900 8 0.10
0x400908 8 0.10
0x400910 8 0.10
0x400918 8 0.10
0x400920 8 0.10
0x400928 8 0.10
0x400930 8 0.10
0x400938 8 0.10
0x400940 8 0.10
0x400948 8 0.10
0x400950 8 0.10
0x400958 8 0.10
0x400960 8 0.10
0x400968 8 0.10
0x400970 8 0.10
0x400978 8 0.10
0x400980 8 0.10
0x400988 8 0.10
0x400990 8 0.10
0x400998 8 0.10
0x4009a0 8 0.10
0x4009a8 8 0.10
0x4009b0 8 0.10
0x4009b8 8 0.10
0x4009c0 8 0.10
0x4009c8 8 0.10
0x4009d0 8 0.10
0x4009d8 8 0.10
0x4009e0 8 0.10
0x4009e8 1 0.01
0x4009f0 1 0.01
0x4009f8 1 0.01
0x400a00 1 0.01
0x400a08 1 0.01
0x400a10 1 0.01
0x400a18 1 0.01
0x400a20 1 0.01
0x400a28 1 0.01
0x400a30 1 0.01
0x400a38 1 0.01
0x400a40 1 0.01
0x400a48 1 0.01
0x400a50 1 0.01
0x400a58 1 0.01
0x400a60 1 0.01
0x400a68 1 0.01
0x400a70 1 0.01
0x400a78 1 0.01
0x400a80 1 0.01
0x400a88 1 0.01
0x400a90 1 0.01
0x400a98 1 0.01
0x400aa0 1 0.01
0x400ab0 1 0.01
0x400ab8 1 0.01
0x400ac0 1 0.01
0x400ac8 1 0.01
0x400ad0 1 0.01
0x400ad8 1 0.01
0x400ae0 1 0.01
0x400ae8 1 0.01
0x400af0 1 0.01
0x400af8 1 0.01
0x400b00 1 0.01
0x400b08 1 0.01
0x400b10 1 0.01
0x400b18 1 0.01
0x400b20 1 0.01
0x400b28 1 0.01
0x400b30 1 0.01
0x400b38 1 0.01
0x400b40 1 0.01
0x400b48 1 0.01
0x400b50 1 0.01
0x400b58 1 0.01
0x400b60 1 0.01
0x400c10 1 0.01
0x400c18 1 0.01
0x400c20 1 0.01
0x400c28 1 0.01
0x400c30 1 0.01
0x400c80 1 0.01
0x400c88 1 0.01
0x400c90 1 0.01
0x400c98 1 0.01
0x400ca0 1 0.01
0x400ca8 1 0.01
0x400cb0 1 0.01
0x400cb8 1 0.01
0x400cc0 1 0.01
0x400cc8 1 0.01
0x400cd0 1 0.01
0x400cd8 1 0.01
0x400ce8 1 0.01
0x400cf0 1 0.01
0x400cf8 1 0.01
0x400d00 1 0.01
0x400d08 1 0.01
0x400f20 1 0.01
0x400f28 1 0.01
0x400f30 1 0.01
0x400f38 1 0.01
0x400f40 1 0.01
0x400f48 1 0.01
0x400f50 1 0.01
0x400f70 1 0.01
0x400f90 1 0.01
0x400f98 1 0.01
0x400fa0 1 0.01
0x400fa8 1 0.01
0x400fb0 1 0.01
0x400fb8 1 0.01
0x400fd8 1 0.01
0x400fe0 1 0.01
0x400fe8 1 0.01
0x400ff0 1 0.01
0x401010 1 0.01
0x401018 1 0.01
0x401020 1 0.01
0x401028 1 0.01
0x401030 1 0.01
0x401038 1 0.01
0x401040 1 0.01
0x401048 1 0.01
0x401050 1 0.01
0x401058 1 0.01
0x401060 1 0.01
0x401068 1 0.01
0x401070 1 0.01
0x401078 1 0.01
0x401080 1 0.01
0x401088 1 0.01
0x401090 1 0.01
0x401098 1 0.01
0x4010a0 1 0.01
0x4010a8 1 0.01
0x4010b0 1 0.01
0x4010b8 1 0.01
0x4010c0 1 0.01
0x4010c8 1 0.01
0x4010d8 1 0.01
0x4010e0 1 0.01
0x4010e8 1 0.01
0x4010f0 1 0.01
0x4010f8 1 0.01
0x401100 1 0.01
0x401108 1 0.01
0x401110 1 0.01
0x401118 1 0.01
0x401120 1 0.01
0x401128 1 0.01
0x401130 1 0.01
0x401138 1 0.01
0x401140 1 0.01
0x401148 1 0.01
0x401150 1 0.01
0x401158 1 0.01
0x401160 1 0.01
0x401168 1 0.01
0x401170 1 0.01
0x401178 1 0.01
0x401180 1 0.01
0x401188 1 0.01
0x401190 1 0.01
0x401198 1 0.01
0x4011a8 1 0.01
0x4011b0 1 0.01
0x4011b8 1 0.01
0x4011c0 1 0.01
0x4011c8 1 0.01
0x4011d0 1 0.01
0x4011d8 1 0.01
0x4011e0 1 0.01
0x4011e8 1 0.01
0x4011f0 1 0.01
0x4011f8 1 0.01
0x401200 1 0.01
0x401208 1 0.01
0x401210 1 0.01
0x401218 1 0.01
0x401220 1 0.01
0x401228 1 0.01
0x401258 1 0.01
0x401260 1 0.01
0x401270 1 0.01
0x401278 1 0.01
0x401290 1 0.01
0x401298 1 0.01
0x4012a0 1 0.01
0x4012a8 1 0.01
0x4012b8 1 0.01
0x4012c0 1 0.01
0x4012c8 1 0.01
0x4012d0 1 0.01
0x4012d8 1 0.01
0x401560 1 0.01
0x401568 1 0.01
0x401570 1 0.01
0x401578 1 0.01
0x401588 1 0.01
0x401590 1 0.01
0x401598 1 0.01
0x4015a0 1 0.01
0x4015a8 1 0.01
0x4015b0 1 0.01
0x4015b8 1 0.01
0x4015c0 1 0.01
0x4015c8 1 0.01
0x4015d0 1 0.01
0x4015d8 1 0.01
0x4015e0 1 0.01
0x4015e8 1 0.01
0x4015f0 1 0.01
0x4015f8 1 0.01
0x401600 1 0.01
0x401608 1 0.01
0x401610 1 0.01
0x401618 1 0.01
0x401620 1 0.01
0x401628 1 0.01
0x401630 1 0.01
0x401648 1 0.01
0x401650 1 0.01
0x401658 1 0.01
0x401660 1 0.01
0x401668 1 0.01
0x401670 1 0.01
0x401680 1 0.01
0x401688 1 0.01
0x401a20 1 0.01
0x401a28 1 0.01
0x401a30 1 0.01
0x401a38 1 0.01
0x401a40 1 0.01
0x401a48 1 0.01
0x401a50 1 0.01
0x401a58 1 0.01
0x401a60 1 0.01
0x401a68 1 0.01
0x401a70 1 0.01
0x401a78 1 0.01
0x401a80 1 0.01
0x401a88 1 0.01
0x401a90 1 0.01
0x401a98 1 0.01
0x401aa0 1 0.01
0x401aa8 1 0.01
0x401ab0 1 0.01
0x401ab8 1 0.01
0x401ac0 1 0.01
0x401ac8 1 0.01
0x401ad0 1 0.01
0x401ad8 1 0.01
0x401ae0 1 0.01
0x401ae8 1 0.01
0x401bd0 1 0.01
0x401bd8 1 0.01
0x401be0 1 0.01
0x401be8 1 0.01
0x401bf0 1 0.01
0x401bf8 1 0.01
0x401c00 1 0.01
0x401c10 1 0.01
0x401c18 1 0.01
0x401c20 1 0.01
0x401c28 1 0.01
0x401c30 1 0.01
0x401c38 1 0.01
0x401c40 1 0.01
0x401c48 1 0.01
0x401c50 1 0.01
0x401c58 1 0.01
0x401c60 1 0.01
0x401c68 1 0.01
0x401c70 1 0.01
0x401c78 1 0.01
0x401c80 1 0.01
0x401c88 1 0.01
0x401c90 1 0.01
0x401f28 1 0.01
0x401f30 1 0.01
0x401f38 1 0.01
0x401f40 1 0.01
0x401f48 1 0.01
0x401f50 1 0.01
0x401f58 1 0.01
0x401f60 1 0.01
0x401f70 4 0.05
0x401f78 4 0.05
0x401f80 4 0.05
0x401f88 4 0.05
0x401f90 4 0.05
0x401f98 4 0.05
0x401fa0 4 0.05
0x401fa8 1 0.01
0x401fb0 1 0.01
0x401fb8 1 0.01
0x401fc0 1 0.01
0x401fc8 1 0.01
0x401fd0 1 0.01
0x401fd8 3 0.04
0x401fe0 3 0.04
0x401ff8 3 0.04
0x402000 3 0.04
0x402008 3 0.04
0x402010 3 0.04
0x402018 3 0.04
0x402020 3 0.04
0x402028 1 0.01
0x402030 1 0.01
0x402038 3 0.04
0x402040 3 0.04
0x402048 3 0.04
0x402050 3 0.04
0x402068 3 0.04
0x402070 3 0.04
0x402078 3 0.04
0x402080 3 0.04
0x4020a8 3 0.04
0x4020b0 3 0.04
0x4020b8 3 0.04
0x4020c0 2 0.03
0x4020c8 2 0.03
0x4020d0 2 0.03
0x4020d8 2 0.03
0x4020e0 2 0.03
0x4020f8 3 0.04
0x402100 3 0.04
0x402108 1 0.01
0x402110 1 0.01
0x402118 1 0.01
0x402120 1 0.01
0x402128 3 0.04
0x402130 3 0.04
0x402138 2 0.03
0x402140 2 0.03
0x402148 2 0.03
0x402150 2 0.03
0x402158 1 0.01
0x402160 1 0.01
0x402168 1 0.01
0x402170 1 0.01
0x402178 1 0.01
0x402198 1 0.01
0x4021a0 3 0.04
0x4021a8 3 0.04
0x4021b0 3 0.04
0x4021b8 4 0.05
0x4021c0 4 0.05
0x4021c8 4 0.05
0x4021d0 4 0.05
0x4021d8 4 0.05
0x4021e0 4 0.05
0x402210 1 0.01
0x402218 1 0.01
0x402220 1 0.01
0x402228 1 0.01
0x402260 1 0.01
0x402268 1 0.01
0x402270 1 0.01
0x402278 1 0.01
0x402280 1 0.01
0x402288 1 0.01
0x402290 2 0.03
0x402298 2 0.03
0x4022a0 2 0.03
0x4022a8 2 0.03
0x4022b0 2 0.03
0x4022b8 2 0.03
0x4022c0 2 0.03
0x4022c8 2 0.03
0x4022d0 1 0.01
0x4022d8 1 0.01
0x4022e0 1 0.01
0x4022e8 1 0.01
0x4022f0 1 0.01
0x4022f8 1 0.01
0x402300 1 0.01
0x402308 1 0.01
0x402310 1 0.01
0x402318 1 0.01
0x402398 1 0.01
0x4023a0 1 0.01
0x4023a8 1 0.01
0x4023b0 3 0.04
0x4023b8 3 0.04
0x4023c0 3 0.04
0x4023c8 3 0.04
0x4023d0 3 0.04
0x4023d8 3 0.04
0x4023e0 3 0.04
0x4023e8 3 0.04
0x4023f0 3 0.04
0x4023f8 3 0.04
0x402400 4 0.05
0x402408 4 0.05
0x402410 4 0.05
0x402418 4 0.05
0x402420 4 0.05
0x402428 4 0.05
0x402430 4 0.05
0x402438 4 0.05
0x402440 4 0.05
0x402448 4 0.05
0x402478 4 0.05
0x402480 4 0.05
0x402488 4 0.05
0x402490 390 5.05
0x402498 390 5.05
0x4024a0 390 5.05
0x4024a8 390 5.05
0x4024b0 390 5.05
0x4024b8 390 5.05
0x4024c0 390 5.05
0x4024c8 390 5.05
0x4024d0 390 5.05
0x4024d8 390 5.05
0x4024e0 390 5.05
0x4024e8 390 5.05
0x4024f0 4 0.05
0x4024f8 4 0.05
0x402500 4 0.05
0x402508 12 0.16
0x402510 12 0.16
0x402518 12 0.16
0x402520 12 0.16
0x402528 4 0.05
0x402530 4 0.05
0x402558 4 0.05
0x402560 4 0.05
0x402730 1 0.01
0x402738 1 0.01
0x402740 1 0.01
0x402748 1 0.01
0x402750 1 0.01
0x402758 1 0.01
0x402760 1 0.01
0x402768 1 0.01
0x402770 1 0.01
0x402778 1 0.01
0x402788 1 0.01
0x402790 1 0.01
0x402798 1 0.01
0x4027a0 1 0.01
0x4027a8 1 0.01
0x4027b0 1 0.01
0x4027b8 1 0.01
0x4027c0 1 0.01
0x4027c8 1 0.01
0x4027d0 1 0.01
0x4027d8 1 0.01
0x4027e0 1 0.01
0x4027e8 1 0.01
0x4027f0 1 0.01
0x4027f8 1 0.01
0x402800 1 0.01
0x402808 1 0.01
0x402810 1 0.01
0x402818 1 0.01
0x402820 1 0.01
0x402828 1 0.01
0x402830 1 0.01
0x402838 1 0.01
0x402840 1 0.01
0x402848 1 0.01
0x402898 1 0.01
0x4028a0 1 0.01
0x4028a8 1 0.01
0x4028b0 1 0.01
0x4028b8 1 0.01
0x4028c0 1 0.01
0x4028c8 1 0.01
0x4028e0 1 0.01
0x4028e8 1 0.01
0x4028f0 1 0.01
0x4028f8 1 0.01
0x402900 1 0.01
0x402908 1 0.01
0x402910 1 0.01
0x402918 1 0.01
0x402920 1 0.01
0x402928 1 0.01
0x402930 1 0.01
0x402938 1 0.01
0x402940 1 0.01
0x402990 1 0.01
0x402998 1 0.01
0x4029a0 1 0.01
0x4029a8 1 0.01
0x4029b0 1 0.01
0x4029b8 1 0.01
0x4029c0 1 0.01
0x4029c8 1 0.01
0x4029d0 1 0.01
0x4029d8 1 0.01
0x4029e0 1 0.01
0x4029e8 1 0.01
0x4029f0 1 0.01
0x4029f8 1 0.01
0x402a00 1 0.01
0x402a08 1 0.01
0x402a10 1 0.01
0x402a18 1 0.01
0x402a20 1 0.01
0x402a28 1 0.01
0x402a30 1 0.01
0x402a38 1 0.01
0x402a40 1 0.01
0x402a48 1 0.01
0x402a50 1 0.01
0x402a58 1 0.01
0x402a60 1 0.01
0x402a68 1 0.01
0x402b20 1 0.01
0x402b28 1 0.01
0x402b30 1 0.01
0x402b38 1 0.01
0x402b40 1 0.01
0x402c90 1 0.01
0x402c98 1 0.01
0x402fa8 1 0.01
0x402fb0 1 0.01
0x402fb8 1 0.01
0x402fc0 1 0.01
0x402fc8 1 0.01
0x402fd0 1 0.01
0x402fd8 1 0.01
0x402fe0 1 0.01
0x402fe8 1 0.01
0x402ff0 1 0.01
0x402ff8 1 0.01
0x403000 1 0.01
0x403028 1 0.01
0x403030 1 0.01
0x403060 1 0.01
0x403068 1 0.01
0x403070 1 0.01
0x403078 1 0.01
0x4034a8 2 0.03
0x4034b0 2 0.03
0x4034b8 2 0.03
0x4034c0 2 0.03
0x4034c8 2 0.03
0x4034d0 2 0.03
0x4034d8 2 0.03
0x4034e0 2 0.03
0x4034e8 2 0.03
0x4034f0 2 0.03
0x4034f8 2 0.03
0x403500 2 0.03
0x403508 2 0.03
0x403510 2 0.03
0x403518 2 0.03
0x403520 2 0.03
0x403528 2 0.03
0x403530 2 0.03
0x403538 2 0.03
0x403540 2 0.03
0x403548 2 0.03
0x403550 2 0.03
0x403558 2 0.03
0x403560 2 0.03
0x403568 2 0.03
0x403570 2 0.03
0x403578 2 0.03
0x403580 2 0.03
0x403738 2 0.03
0x403740 2 0.03
0x403748 1 0.01
0x403750 1 0.01
0x403758 1 0.01
0x403760 1 0.01
0x403768 1 0.01
0x403770 1 0.01
0x403778 1 0.01
0x4037e0 2 0.03
0x4037e8 2 0.03
0x4037f0 2 0.03
0x4037f8 2 0.03
0x403830 2 0.03
0x403838 2 0.03
0x403840 2 0.03
0x403848 2 0.03
0x403850 2 0.03
0x403858 2 0.03
0x403860 2 0.03
0x403868 2 0.03
0x403870 2 0.03
0x403878 2 0.03
0x403880 2 0.03
0x403b80 2 0.03
0x403b88 2 0.03
0x403b90 2 0.03
0x403b98 2 0.03
0x403ba0 2 0.03
0x403ba8 2 0.03
0x403bb0 2 0.03
0x403bb8 2 0.03
0x403bc0 2 0.03
0x403bd8 2 0.03
0x403be0 2 0.03
0x403be8 2 0.03
0x403bf0 2 0.03
0x403bf8 2 0.03
0x403c00 2 0.03
0x403c08 2 0.03
0x403c10 2 0.03
0x403c18 2 0.03
0x403c20 2 0.03
0x403c28 2 0.03
0x4040c0 2 0.03
0x4040c8 2 0.03
0x4040d0 2 0.03
0x4040d8 2 0.03
0x4040e0 2 0.03
0x4040e8 2 0.03
0x4040f0 2 0.03
0x4040f8 2 0.03
0x404100 2 0.03
0x404108 2 0.03
0x404110 2 0.03
0x404118 2 0.03
0x404120 2 0.03
0x404128 2 0.03
0x404130 2 0.03
0x404148 2 0.03
0x404150 2 0.03
0x404158 2 0.03
0x404160 2 0.03
0x404168 2 0.03
0x404170 2 0.03
0x404178 2 0.03
0x4041a0 2 0.03
0x4041a8 2 0.03
0x4041b0 2 0.03
0x4041b8 2 0.03
0x4041c0 2 0.03
0x4041f8 2 0.03
0x404200 2 0.03
0x404208 2 0.03
0x404210 2 0.03
0x404218 2 0.03
0x404220 2 0.03
0x404228 2 0.03
0x404230 2 0.03
0x404238 2 0.03
0x404240 2 0.03
0x404248 2 0.03
0x404250 2 0.03
0x404258 2 0.03
0x404260 2 0.03
0x404268 2 0.03
0x404270 2 0.03
0x404278 2 0.03
0x404280 2 0.03
0x404288 2 0.03
0x404290 2 0.03
0x404298 2 0.03
0x4042a0 2 0.03
0x4042a8 2 0.03
0x4042b0 2 0.03
0x4042b8 2 0.03
0x4042c0 2 0.03
0x4042c8 2 0.03
0x4042d0 2 0.03
0x4042d8 2 0.03
0x4042e0 2 0.03
0x4042e8 1 0.01
0x4042f0 1 0.01
0x404308 1 0.01
0x404310 1 0.01
0x404318 1 0.01
0x404320 1 0.01
0x404328 1 0.01
0x404330 1 0.01
0x404338 1 0.01
0x404370 1 0.01
0x404378 1 0.01
0x404380 1 0.01
0x4043a8 2 0.03
0x4043b0 2 0.03
0x4043b8 2 0.03
0x4043c0 2 0.03
0x4043c8 2 0.03
0x4043d0 2 0.03
0x4043d8 2 0.03
0x4043e0 2 0.03
0x4043e8 2 0.03
0x404418 2 0.03
0x4044e0 2 0.03
0x4044e8 2 0.03
0x4044f0 2 0.03
0x404518 2 0.03
0x404520 2 0.03
0x404530 2 0.03
0x404538 2 0.03
0x404540 2 0.03
0x404548 2 0.03
0x404550 2 0.03
0x404558 2 0.03
0x404588 2 0.03
0x404590 2 0.03
0x404598 2 0.03
0x4045a0 2 0.03
0x4045b8 2 0.03
0x4045c0 2 0.03
0x4045c8 2 0.03
0x4045d0 2 0.03
0x4045d8 2 0.03
0x4045e0 2 0.03
0x4045e8 2 0.03
0x4045f0 2 0.03
0x404b88 3 0.04
0x404b90 3 0.04
0x404b98 3 0.04
0x404ba0 3 0.04
0x404ba8 3 0.04
0x404bb0 3 0.04
0x404bb8 3 0.04
0x404bc0 3 0.04
0x404bc8 3 0.04
0x404bd0 3 0.04
0x404bd8 3 0.04
0x404be0 3 0.04
0x404be8 3 0.04
0x404bf0 3 0.04
0x404bf8 3 0.04
0x404da0 2 0.03
0x404da8 2 0.03
0x404db0 2 0.03
0x404db8 2 0.03
0x404dc0 2 0.03
0x404dc8 2 0.03
0x405240 3 0.04
0x405248 3 0.04
0x405250 3 0.04
0x405258 3 0.04
0x405270 3 0.04
0x405278 3 0.04
0x405280 3 0.04
0x405288 3 0.04
0x405290 3 0.04
0x405298 3 0.04
0x4052a0 3 0.04
0x4052a8 3 0.04
0x4052b0 3 0.04
0x4052b8 3 0.04
0x4052c0 3 0.04
0x405b20 2 0.03
0x405b28 2 0.03
0x405b30 2 0.03
0x405b38 2 0.03
0x405b40 2 0.03
0x405b48 2 0.03
0x405b50 2 0.03
0x405b58 2 0.03
0x405b60 2 0.03
0x405b68 2 0.03
0x405b70 2 0.03
0x405b78 1 0.01
0x405b80 1 0.01
0x405b88 1 0.01
0x405b90 1 0.01
0x405b98 1 0.01
0x405ba0 1 0.01
0x405ba8 1 0.01
0x405bb0 1 0.01
0x405bd8 1 0.01
0x405be0 1 0.01
0x405c20 1 0.01
0x405c28 1 0.01
0x405c30 2 0.03
0x405c38 2 0.03
0x405c40 2 0.03
0x405c48 2 0.03
0x405c50 2 0.03
0x405d30 2 0.03
0x405d38 2 0.03
0x405d40 2 0.03
0x405d48 2 0.03
0x405d50 2 0.03
0x405de0 3 0.04
0x405de8 3 0.04
0x405df0 3 0.04
0x405e00 3 0.04
0x405e08 3 0.04
0x405e10 3 0.04
0x405e18 3 0.04
0x405e20 3 0.04
0x405e28 3 0.04
0x405e50 1 0.01
0x405e58 1 0.01
0x405e60 1 0.01
0x405e68 1 0.01
0x405e70 1 0.01
sim_num_insn_by_pc.end_dist

ld_text_base             0x00400000 # target_name text (code) segment base
ld_text_size                  24496 # target_name text (code) size in bytes
ld_data_base             0x10000000 # target_name initialized data segment base
ld_data_size                   4096 # target_name init'ed `.data' and uninit'ed `.bss' size in bytes
ld_stack_base            0x7fffc000 # target_name stack segment base (highest address in stack)
ld_stack_size                 16384 # target_name initial stack size
ld_prog_entry            0x00400140 # target_name entry point (initial PC)
ld_environ_base          0x7fff8000 # target_name environment base address address
ld_target_big_endian              0 # target executable endian-ness, non-zero if big endian
mem.page_count                   12 # total number of pages allocated
mem.page_mem                    48k # total size of memory pages allocated
mem.ptab_misses                  12 # total first level page table misses
mem.ptab_accesses            193184 # total page table accesses
mem.ptab_miss_rate           0.0001 # first level page table miss rate

+--------------------------------------------------------------+
| effective code range:         [0, fffffff8]                  |
| effective bpred count:        0                              |
| effective sim cycles:         0                              |
| effective bpred misses:       0                              |
| effective icache misses:      0                              |
+--------------------------------------------------------------+

