cd 'cde-root/home/keji38/cde'
'./sim-cache.cde'
'./sim-cheetah.cde'
'./sim-outorder.cde'
'./sslittle-na-sstrix-gcc.cde'
'./sslittle-na-sstrix-gcc.cde' 'test1.c'
'./sslittle-na-sstrix-objdump.cde' 'a.out'
'./sslittle-na-sstrix-objdump.cde' '-d' 'a.out'
'./sim-cache.cde' 'a.out'
'./sim-cheetah.cde' 'a.out'
'./sim-outorder.cde' 'a.out'
