sim-profile: SimpleScalar/PISA Tool Set version 3.0 of August, 2003.
Copyright (c) 1994-2003 by Todd M. Austin, Ph.D. and SimpleScalar, LLC.
All Rights Reserved. This version of SimpleScalar is licensed for academic
non-commercial use.  No portion of this work may be used by any commercial
entity, or for any commercial purpose, without the prior written permission
of SimpleScalar, LLC (info@simplescalar.com).

sim: command line: /home/sudiptac/sudiptac/Work/simplesim-3.0/sim-profile -pcstat sim_num_insn qurt 

sim: simulation started @ Thu Aug 18 15:53:38 2011, options follow:

sim-profile: This simulator implements a functional simulator with
profiling support.  Run with the `-h' flag to see profiling options
available.

# -config                     # load configuration from a file
# -dumpconfig                 # dump configuration to a file
# -h                    false # print help message    
# -v                    false # verbose operation     
# -d                    false # enable debug message  
# -i                    false # start in Dlite debugger
-seed                       1 # random number generator seed (0 for timer seed)
# -q                    false # initialize and terminate immediately
# -chkpt               <null> # restore EIO trace execution from <fname>
# -redir:sim           <null> # redirect simulator output to file (non-interactive only)
# -redir:prog          <null> # redirect simulated target_name output to file
-nice                       0 # simulator scheduling priority
-max:inst                   0 # maximum number of inst's to execute
-all                    false # enable all profile options
-iclass                 false # enable instruction class profiling
-iprof                  false # enable instruction profiling
-brprof                 false # enable branch instruction profiling
-amprof                 false # enable address mode profiling
-segprof                false # enable load/store address segment profiling
-tsymprof               false # enable text symbol profiling
-taddrprof              false # enable text address profiling
-dsymprof               false # enable data symbol profiling
-internal               false # include compiler-internal symbols during symbol profiling
# -pcstat        sim_num_insn # profile stat(s) against text addr's (mult uses ok)

sim: ** starting functional simulation **

sim: ** simulation statistics **
sim_num_insn                   6146 # total number of instructions executed
sim_num_refs                   3662 # total number of loads and stores executed
sim_elapsed_time                  1 # total simulation time in seconds
sim_inst_rate             6146.0000 # simulation speed (in insts/sec)

sim_num_insn_by_pc     # total number of instructions executed (by text address)
sim_num_insn_by_pc.count = 904
sim_num_insn_by_pc.total = 6145
sim_num_insn_by_pc.imin = 0x400140
sim_num_insn_by_pc.imax = 0x405b10
sim_num_insn_by_pc.average =   6.7976
sim_num_insn_by_pc.std_dev =  44.4845
sim_num_insn_by_pc.overflows = 0
# pdf == prob dist fn, cdf == cumulative dist fn
#          index      count    pdf 
sim_num_insn_by_pc.start_dist
0x400140 1 0.02
0x400148 1 0.02
0x400150 1 0.02
0x400158 1 0.02
0x400160 1 0.02
0x400168 1 0.02
0x400170 1 0.02
0x400178 1 0.02
0x400180 1 0.02
0x400188 1 0.02
0x400190 1 0.02
0x400198 1 0.02
0x4001a0 1 0.02
0x4001a8 1 0.02
0x4001b0 1 0.02
0x4001b8 1 0.02
0x4001c0 1 0.02
0x4001c8 1 0.02
0x4001d0 1 0.02
0x4001d8 1 0.02
0x4001e0 1 0.02
0x4001f0 4 0.07
0x4001f8 4 0.07
0x400200 4 0.07
0x400208 4 0.07
0x400210 1 0.02
0x400218 1 0.02
0x400220 3 0.05
0x400228 4 0.07
0x400230 1 0.02
0x400238 1 0.02
0x400240 1 0.02
0x400248 1 0.02
0x400250 1 0.02
0x400258 1 0.02
0x400260 1 0.02
0x400268 1 0.02
0x400270 1 0.02
0x400278 1 0.02
0x400280 1 0.02
0x400288 1 0.02
0x400290 1 0.02
0x400298 1 0.02
0x4002a0 1 0.02
0x4002a8 1 0.02
0x4002c0 1 0.02
0x4002c8 3 0.05
0x4002d0 3 0.05
0x4002d8 3 0.05
0x4002e0 3 0.05
0x4002e8 3 0.05
0x4002f0 3 0.05
0x4002f8 3 0.05
0x400300 3 0.05
0x400308 3 0.05
0x400310 3 0.05
0x400318 3 0.05
0x400328 3 0.05
0x400330 3 0.05
0x400338 3 0.05
0x400340 1 0.02
0x400348 1 0.02
0x400350 1 0.02
0x400358 1 0.02
0x400360 1 0.02
0x400368 1 0.02
0x400370 1 0.02
0x400378 1 0.02
0x400380 1 0.02
0x400388 1 0.02
0x400390 1 0.02
0x400398 1 0.02
0x4003a0 1 0.02
0x4003a8 1 0.02
0x4003b0 1 0.02
0x4003b8 1 0.02
0x4003c0 1 0.02
0x4003c8 1 0.02
0x4003d0 1 0.02
0x4003d8 1 0.02
0x4003e0 1 0.02
0x4003e8 1 0.02
0x4003f0 1 0.02
0x4003f8 1 0.02
0x400400 1 0.02
0x400408 1 0.02
0x400410 1 0.02
0x400418 1 0.02
0x400420 1 0.02
0x400428 1 0.02
0x400430 1 0.02
0x400438 1 0.02
0x400440 1 0.02
0x400448 1 0.02
0x400450 1 0.02
0x400458 1 0.02
0x400460 1 0.02
0x400468 1 0.02
0x400470 1 0.02
0x400478 1 0.02
0x400480 1 0.02
0x400488 1 0.02
0x400490 1 0.02
0x400498 1 0.02
0x4004a0 1 0.02
0x4004a8 1 0.02
0x4004b0 1 0.02
0x4004b8 3 0.05
0x4004c0 3 0.05
0x4004c8 3 0.05
0x4004d0 3 0.05
0x4004d8 3 0.05
0x4004e0 3 0.05
0x4004e8 3 0.05
0x4004f0 3 0.05
0x4004f8 3 0.05
0x400500 3 0.05
0x400508 3 0.05
0x400510 2 0.03
0x400518 2 0.03
0x400520 1 0.02
0x400528 1 0.02
0x400530 1 0.02
0x400538 1 0.02
0x400540 1 0.02
0x400548 1 0.02
0x400550 1 0.02
0x400558 1 0.02
0x400560 1 0.02
0x400568 1 0.02
0x400570 1 0.02
0x400578 1 0.02
0x400580 1 0.02
0x400588 1 0.02
0x400590 1 0.02
0x400598 1 0.02
0x4005a0 1 0.02
0x4005a8 1 0.02
0x4005b0 1 0.02
0x4005b8 1 0.02
0x4005c0 1 0.02
0x4005c8 1 0.02
0x4005d0 1 0.02
0x4005d8 1 0.02
0x4005e0 1 0.02
0x4005e8 1 0.02
0x4005f0 1 0.02
0x4005f8 1 0.02
0x400600 1 0.02
0x400608 1 0.02
0x400610 1 0.02
0x400618 1 0.02
0x400620 1 0.02
0x400628 1 0.02
0x400710 1 0.02
0x400718 1 0.02
0x400720 3 0.05
0x400728 3 0.05
0x400730 3 0.05
0x400738 3 0.05
0x400740 3 0.05
0x400748 3 0.05
0x400750 1 0.02
0x400758 1 0.02
0x400760 1 0.02
0x400768 1 0.02
0x400770 1 0.02
0x400778 1 0.02
0x400780 1 0.02
0x400788 1 0.02
0x400790 1 0.02
0x400798 1 0.02
0x4007a0 1 0.02
0x4007a8 1 0.02
0x4007b0 1 0.02
0x4007b8 1 0.02
0x4007c0 1 0.02
0x4007c8 1 0.02
0x4007d0 1 0.02
0x4007d8 1 0.02
0x4007e0 1 0.02
0x4007e8 1 0.02
0x4007f0 1 0.02
0x4007f8 1 0.02
0x400800 1 0.02
0x4008b0 1 0.02
0x4008b8 1 0.02
0x4008c0 1 0.02
0x4008c8 1 0.02
0x4008d0 1 0.02
0x400920 1 0.02
0x400928 1 0.02
0x400930 1 0.02
0x400938 1 0.02
0x400940 1 0.02
0x400948 1 0.02
0x400950 1 0.02
0x400958 1 0.02
0x400960 1 0.02
0x400968 1 0.02
0x400970 1 0.02
0x400978 1 0.02
0x400988 1 0.02
0x400990 1 0.02
0x400998 1 0.02
0x4009a0 1 0.02
0x4009a8 1 0.02
0x400bc0 1 0.02
0x400bc8 1 0.02
0x400bd0 1 0.02
0x400bd8 1 0.02
0x400be0 1 0.02
0x400be8 1 0.02
0x400bf0 1 0.02
0x400c10 1 0.02
0x400c30 1 0.02
0x400c38 1 0.02
0x400c40 1 0.02
0x400c48 1 0.02
0x400c50 1 0.02
0x400c58 1 0.02
0x400c78 1 0.02
0x400c80 1 0.02
0x400c88 1 0.02
0x400c90 1 0.02
0x400cb0 1 0.02
0x400cb8 1 0.02
0x400cc0 1 0.02
0x400cc8 1 0.02
0x400cd0 1 0.02
0x400cd8 1 0.02
0x400ce0 1 0.02
0x400ce8 1 0.02
0x400cf0 1 0.02
0x400cf8 1 0.02
0x400d00 1 0.02
0x400d08 1 0.02
0x400d10 1 0.02
0x400d18 1 0.02
0x400d20 1 0.02
0x400d28 1 0.02
0x400d30 1 0.02
0x400d38 1 0.02
0x400d40 1 0.02
0x400d48 1 0.02
0x400d50 1 0.02
0x400d58 1 0.02
0x400d60 1 0.02
0x400d68 1 0.02
0x400d78 1 0.02
0x400d80 1 0.02
0x400d88 1 0.02
0x400d90 1 0.02
0x400d98 1 0.02
0x400da0 1 0.02
0x400da8 1 0.02
0x400db0 1 0.02
0x400db8 1 0.02
0x400dc0 1 0.02
0x400dc8 1 0.02
0x400dd0 1 0.02
0x400dd8 1 0.02
0x400de0 1 0.02
0x400de8 1 0.02
0x400df0 1 0.02
0x400df8 1 0.02
0x400e00 1 0.02
0x400e08 1 0.02
0x400e10 1 0.02
0x400e18 1 0.02
0x400e20 1 0.02
0x400e28 1 0.02
0x400e30 1 0.02
0x400e38 1 0.02
0x400e48 1 0.02
0x400e50 1 0.02
0x400e58 1 0.02
0x400e60 1 0.02
0x400e68 1 0.02
0x400e70 1 0.02
0x400e78 1 0.02
0x400e80 1 0.02
0x400e88 1 0.02
0x400e90 1 0.02
0x400e98 1 0.02
0x400ea0 1 0.02
0x400ea8 1 0.02
0x400eb0 1 0.02
0x400eb8 1 0.02
0x400ec0 1 0.02
0x400ec8 1 0.02
0x400ef8 1 0.02
0x400f00 1 0.02
0x400f10 1 0.02
0x400f18 1 0.02
0x400f30 1 0.02
0x400f38 1 0.02
0x400f40 1 0.02
0x400f48 1 0.02
0x400f58 1 0.02
0x400f60 1 0.02
0x400f68 1 0.02
0x400f70 1 0.02
0x400f78 1 0.02
0x401200 1 0.02
0x401208 1 0.02
0x401210 1 0.02
0x401218 1 0.02
0x401228 1 0.02
0x401230 1 0.02
0x401238 1 0.02
0x401240 1 0.02
0x401248 1 0.02
0x401250 1 0.02
0x401258 1 0.02
0x401260 1 0.02
0x401268 1 0.02
0x401270 1 0.02
0x401278 1 0.02
0x401280 1 0.02
0x401288 1 0.02
0x401290 1 0.02
0x401298 1 0.02
0x4012a0 1 0.02
0x4012a8 1 0.02
0x4012b0 1 0.02
0x4012b8 1 0.02
0x4012c0 1 0.02
0x4012c8 1 0.02
0x4012d0 1 0.02
0x4012e8 1 0.02
0x4012f0 1 0.02
0x4012f8 1 0.02
0x401300 1 0.02
0x401308 1 0.02
0x401310 1 0.02
0x401320 1 0.02
0x401328 1 0.02
0x4016c0 1 0.02
0x4016c8 1 0.02
0x4016d0 1 0.02
0x4016d8 1 0.02
0x4016e0 1 0.02
0x4016e8 1 0.02
0x4016f0 1 0.02
0x4016f8 1 0.02
0x401700 1 0.02
0x401708 1 0.02
0x401710 1 0.02
0x401718 1 0.02
0x401720 1 0.02
0x401728 1 0.02
0x401730 1 0.02
0x401738 1 0.02
0x401740 1 0.02
0x401748 1 0.02
0x401750 1 0.02
0x401758 1 0.02
0x401760 1 0.02
0x401768 1 0.02
0x401770 1 0.02
0x401778 1 0.02
0x401780 1 0.02
0x401788 1 0.02
0x401870 1 0.02
0x401878 1 0.02
0x401880 1 0.02
0x401888 1 0.02
0x401890 1 0.02
0x401898 1 0.02
0x4018a0 1 0.02
0x4018b0 1 0.02
0x4018b8 1 0.02
0x4018c0 1 0.02
0x4018c8 1 0.02
0x4018d0 1 0.02
0x4018d8 1 0.02
0x4018e0 1 0.02
0x4018e8 1 0.02
0x4018f0 1 0.02
0x4018f8 1 0.02
0x401900 1 0.02
0x401908 1 0.02
0x401910 1 0.02
0x401918 1 0.02
0x401920 1 0.02
0x401928 1 0.02
0x401930 1 0.02
0x401bc8 1 0.02
0x401bd0 1 0.02
0x401bd8 1 0.02
0x401be0 1 0.02
0x401be8 1 0.02
0x401bf0 1 0.02
0x401bf8 1 0.02
0x401c00 1 0.02
0x401c10 4 0.07
0x401c18 4 0.07
0x401c20 4 0.07
0x401c28 4 0.07
0x401c30 4 0.07
0x401c38 4 0.07
0x401c40 4 0.07
0x401c48 1 0.02
0x401c50 1 0.02
0x401c58 1 0.02
0x401c60 1 0.02
0x401c68 1 0.02
0x401c70 1 0.02
0x401c78 3 0.05
0x401c80 3 0.05
0x401c98 3 0.05
0x401ca0 3 0.05
0x401ca8 3 0.05
0x401cb0 3 0.05
0x401cb8 3 0.05
0x401cc0 3 0.05
0x401cc8 1 0.02
0x401cd0 1 0.02
0x401cd8 3 0.05
0x401ce0 3 0.05
0x401ce8 3 0.05
0x401cf0 3 0.05
0x401d08 3 0.05
0x401d10 3 0.05
0x401d18 3 0.05
0x401d20 3 0.05
0x401d48 3 0.05
0x401d50 3 0.05
0x401d58 3 0.05
0x401d60 2 0.03
0x401d68 2 0.03
0x401d70 2 0.03
0x401d78 2 0.03
0x401d80 2 0.03
0x401d98 3 0.05
0x401da0 3 0.05
0x401da8 1 0.02
0x401db0 1 0.02
0x401db8 1 0.02
0x401dc0 1 0.02
0x401dc8 3 0.05
0x401dd0 3 0.05
0x401dd8 2 0.03
0x401de0 2 0.03
0x401de8 2 0.03
0x401df0 2 0.03
0x401df8 1 0.02
0x401e00 1 0.02
0x401e08 1 0.02
0x401e10 1 0.02
0x401e18 1 0.02
0x401e38 1 0.02
0x401e40 3 0.05
0x401e48 3 0.05
0x401e50 3 0.05
0x401e58 4 0.07
0x401e60 4 0.07
0x401e68 4 0.07
0x401e70 4 0.07
0x401e78 4 0.07
0x401e80 4 0.07
0x401eb0 1 0.02
0x401eb8 1 0.02
0x401ec0 1 0.02
0x401ec8 1 0.02
0x401f00 1 0.02
0x401f08 1 0.02
0x401f10 1 0.02
0x401f18 1 0.02
0x401f20 1 0.02
0x401f28 1 0.02
0x401f30 2 0.03
0x401f38 2 0.03
0x401f40 2 0.03
0x401f48 2 0.03
0x401f50 2 0.03
0x401f58 2 0.03
0x401f60 2 0.03
0x401f68 2 0.03
0x401f70 1 0.02
0x401f78 1 0.02
0x401f80 1 0.02
0x401f88 1 0.02
0x401f90 1 0.02
0x401f98 1 0.02
0x401fa0 1 0.02
0x401fa8 1 0.02
0x401fb0 1 0.02
0x401fb8 1 0.02
0x402038 1 0.02
0x402040 1 0.02
0x402048 1 0.02
0x402050 3 0.05
0x402058 3 0.05
0x402060 3 0.05
0x402068 3 0.05
0x402070 3 0.05
0x402078 3 0.05
0x402080 3 0.05
0x402088 3 0.05
0x402090 3 0.05
0x402098 3 0.05
0x4020a0 4 0.07
0x4020a8 4 0.07
0x4020b0 4 0.07
0x4020b8 4 0.07
0x4020c0 4 0.07
0x4020c8 4 0.07
0x4020d0 4 0.07
0x4020d8 4 0.07
0x4020e0 4 0.07
0x4020e8 4 0.07
0x402118 4 0.07
0x402120 4 0.07
0x402128 4 0.07
0x402130 390 6.35
0x402138 390 6.35
0x402140 390 6.35
0x402148 390 6.35
0x402150 390 6.35
0x402158 390 6.35
0x402160 390 6.35
0x402168 390 6.35
0x402170 390 6.35
0x402178 390 6.35
0x402180 390 6.35
0x402188 390 6.35
0x402190 4 0.07
0x402198 4 0.07
0x4021a0 4 0.07
0x4021a8 12 0.20
0x4021b0 12 0.20
0x4021b8 12 0.20
0x4021c0 12 0.20
0x4021c8 4 0.07
0x4021d0 4 0.07
0x4021f8 4 0.07
0x402200 4 0.07
0x4023d0 1 0.02
0x4023d8 1 0.02
0x4023e0 1 0.02
0x4023e8 1 0.02
0x4023f0 1 0.02
0x4023f8 1 0.02
0x402400 1 0.02
0x402408 1 0.02
0x402410 1 0.02
0x402418 1 0.02
0x402428 1 0.02
0x402430 1 0.02
0x402438 1 0.02
0x402440 1 0.02
0x402448 1 0.02
0x402450 1 0.02
0x402458 1 0.02
0x402460 1 0.02
0x402468 1 0.02
0x402470 1 0.02
0x402478 1 0.02
0x402480 1 0.02
0x402488 1 0.02
0x402490 1 0.02
0x402498 1 0.02
0x4024a0 1 0.02
0x4024a8 1 0.02
0x4024b0 1 0.02
0x4024b8 1 0.02
0x4024c0 1 0.02
0x4024c8 1 0.02
0x4024d0 1 0.02
0x4024d8 1 0.02
0x4024e0 1 0.02
0x4024e8 1 0.02
0x402538 1 0.02
0x402540 1 0.02
0x402548 1 0.02
0x402550 1 0.02
0x402558 1 0.02
0x402560 1 0.02
0x402568 1 0.02
0x402580 1 0.02
0x402588 1 0.02
0x402590 1 0.02
0x402598 1 0.02
0x4025a0 1 0.02
0x4025a8 1 0.02
0x4025b0 1 0.02
0x4025b8 1 0.02
0x4025c0 1 0.02
0x4025c8 1 0.02
0x4025d0 1 0.02
0x4025d8 1 0.02
0x4025e0 1 0.02
0x402630 1 0.02
0x402638 1 0.02
0x402640 1 0.02
0x402648 1 0.02
0x402650 1 0.02
0x402658 1 0.02
0x402660 1 0.02
0x402668 1 0.02
0x402670 1 0.02
0x402678 1 0.02
0x402680 1 0.02
0x402688 1 0.02
0x402690 1 0.02
0x402698 1 0.02
0x4026a0 1 0.02
0x4026a8 1 0.02
0x4026b0 1 0.02
0x4026b8 1 0.02
0x4026c0 1 0.02
0x4026c8 1 0.02
0x4026d0 1 0.02
0x4026d8 1 0.02
0x4026e0 1 0.02
0x4026e8 1 0.02
0x4026f0 1 0.02
0x4026f8 1 0.02
0x402700 1 0.02
0x402708 1 0.02
0x4027c0 1 0.02
0x4027c8 1 0.02
0x4027d0 1 0.02
0x4027d8 1 0.02
0x4027e0 1 0.02
0x402930 1 0.02
0x402938 1 0.02
0x402c48 1 0.02
0x402c50 1 0.02
0x402c58 1 0.02
0x402c60 1 0.02
0x402c68 1 0.02
0x402c70 1 0.02
0x402c78 1 0.02
0x402c80 1 0.02
0x402c88 1 0.02
0x402c90 1 0.02
0x402c98 1 0.02
0x402ca0 1 0.02
0x402cc8 1 0.02
0x402cd0 1 0.02
0x402d00 1 0.02
0x402d08 1 0.02
0x402d10 1 0.02
0x402d18 1 0.02
0x403148 2 0.03
0x403150 2 0.03
0x403158 2 0.03
0x403160 2 0.03
0x403168 2 0.03
0x403170 2 0.03
0x403178 2 0.03
0x403180 2 0.03
0x403188 2 0.03
0x403190 2 0.03
0x403198 2 0.03
0x4031a0 2 0.03
0x4031a8 2 0.03
0x4031b0 2 0.03
0x4031b8 2 0.03
0x4031c0 2 0.03
0x4031c8 2 0.03
0x4031d0 2 0.03
0x4031d8 2 0.03
0x4031e0 2 0.03
0x4031e8 2 0.03
0x4031f0 2 0.03
0x4031f8 2 0.03
0x403200 2 0.03
0x403208 2 0.03
0x403210 2 0.03
0x403218 2 0.03
0x403220 2 0.03
0x4033d8 2 0.03
0x4033e0 2 0.03
0x4033e8 1 0.02
0x4033f0 1 0.02
0x4033f8 1 0.02
0x403400 1 0.02
0x403408 1 0.02
0x403410 1 0.02
0x403418 1 0.02
0x403480 2 0.03
0x403488 2 0.03
0x403490 2 0.03
0x403498 2 0.03
0x4034d0 2 0.03
0x4034d8 2 0.03
0x4034e0 2 0.03
0x4034e8 2 0.03
0x4034f0 2 0.03
0x4034f8 2 0.03
0x403500 2 0.03
0x403508 2 0.03
0x403510 2 0.03
0x403518 2 0.03
0x403520 2 0.03
0x403820 2 0.03
0x403828 2 0.03
0x403830 2 0.03
0x403838 2 0.03
0x403840 2 0.03
0x403848 2 0.03
0x403850 2 0.03
0x403858 2 0.03
0x403860 2 0.03
0x403878 2 0.03
0x403880 2 0.03
0x403888 2 0.03
0x403890 2 0.03
0x403898 2 0.03
0x4038a0 2 0.03
0x4038a8 2 0.03
0x4038b0 2 0.03
0x4038b8 2 0.03
0x4038c0 2 0.03
0x4038c8 2 0.03
0x403d60 2 0.03
0x403d68 2 0.03
0x403d70 2 0.03
0x403d78 2 0.03
0x403d80 2 0.03
0x403d88 2 0.03
0x403d90 2 0.03
0x403d98 2 0.03
0x403da0 2 0.03
0x403da8 2 0.03
0x403db0 2 0.03
0x403db8 2 0.03
0x403dc0 2 0.03
0x403dc8 2 0.03
0x403dd0 2 0.03
0x403de8 2 0.03
0x403df0 2 0.03
0x403df8 2 0.03
0x403e00 2 0.03
0x403e08 2 0.03
0x403e10 2 0.03
0x403e18 2 0.03
0x403e40 2 0.03
0x403e48 2 0.03
0x403e50 2 0.03
0x403e58 2 0.03
0x403e60 2 0.03
0x403e98 2 0.03
0x403ea0 2 0.03
0x403ea8 2 0.03
0x403eb0 2 0.03
0x403eb8 2 0.03
0x403ec0 2 0.03
0x403ec8 2 0.03
0x403ed0 2 0.03
0x403ed8 2 0.03
0x403ee0 2 0.03
0x403ee8 2 0.03
0x403ef0 2 0.03
0x403ef8 2 0.03
0x403f00 2 0.03
0x403f08 2 0.03
0x403f10 2 0.03
0x403f18 2 0.03
0x403f20 2 0.03
0x403f28 2 0.03
0x403f30 2 0.03
0x403f38 2 0.03
0x403f40 2 0.03
0x403f48 2 0.03
0x403f50 2 0.03
0x403f58 2 0.03
0x403f60 2 0.03
0x403f68 2 0.03
0x403f70 2 0.03
0x403f78 2 0.03
0x403f80 2 0.03
0x403f88 1 0.02
0x403f90 1 0.02
0x403fa8 1 0.02
0x403fb0 1 0.02
0x403fb8 1 0.02
0x403fc0 1 0.02
0x403fc8 1 0.02
0x403fd0 1 0.02
0x403fd8 1 0.02
0x404010 1 0.02
0x404018 1 0.02
0x404020 1 0.02
0x404048 2 0.03
0x404050 2 0.03
0x404058 2 0.03
0x404060 2 0.03
0x404068 2 0.03
0x404070 2 0.03
0x404078 2 0.03
0x404080 2 0.03
0x404088 2 0.03
0x4040b8 2 0.03
0x404180 2 0.03
0x404188 2 0.03
0x404190 2 0.03
0x4041b8 2 0.03
0x4041c0 2 0.03
0x4041d0 2 0.03
0x4041d8 2 0.03
0x4041e0 2 0.03
0x4041e8 2 0.03
0x4041f0 2 0.03
0x4041f8 2 0.03
0x404228 2 0.03
0x404230 2 0.03
0x404238 2 0.03
0x404240 2 0.03
0x404258 2 0.03
0x404260 2 0.03
0x404268 2 0.03
0x404270 2 0.03
0x404278 2 0.03
0x404280 2 0.03
0x404288 2 0.03
0x404290 2 0.03
0x404828 3 0.05
0x404830 3 0.05
0x404838 3 0.05
0x404840 3 0.05
0x404848 3 0.05
0x404850 3 0.05
0x404858 3 0.05
0x404860 3 0.05
0x404868 3 0.05
0x404870 3 0.05
0x404878 3 0.05
0x404880 3 0.05
0x404888 3 0.05
0x404890 3 0.05
0x404898 3 0.05
0x404a40 2 0.03
0x404a48 2 0.03
0x404a50 2 0.03
0x404a58 2 0.03
0x404a60 2 0.03
0x404a68 2 0.03
0x404ee0 3 0.05
0x404ee8 3 0.05
0x404ef0 3 0.05
0x404ef8 3 0.05
0x404f10 3 0.05
0x404f18 3 0.05
0x404f20 3 0.05
0x404f28 3 0.05
0x404f30 3 0.05
0x404f38 3 0.05
0x404f40 3 0.05
0x404f48 3 0.05
0x404f50 3 0.05
0x404f58 3 0.05
0x404f60 3 0.05
0x4057c0 2 0.03
0x4057c8 2 0.03
0x4057d0 2 0.03
0x4057d8 2 0.03
0x4057e0 2 0.03
0x4057e8 2 0.03
0x4057f0 2 0.03
0x4057f8 2 0.03
0x405800 2 0.03
0x405808 2 0.03
0x405810 2 0.03
0x405818 1 0.02
0x405820 1 0.02
0x405828 1 0.02
0x405830 1 0.02
0x405838 1 0.02
0x405840 1 0.02
0x405848 1 0.02
0x405850 1 0.02
0x405878 1 0.02
0x405880 1 0.02
0x4058c0 1 0.02
0x4058c8 1 0.02
0x4058d0 2 0.03
0x4058d8 2 0.03
0x4058e0 2 0.03
0x4058e8 2 0.03
0x4058f0 2 0.03
0x4059d0 2 0.03
0x4059d8 2 0.03
0x4059e0 2 0.03
0x4059e8 2 0.03
0x4059f0 2 0.03
0x405a80 3 0.05
0x405a88 3 0.05
0x405a90 3 0.05
0x405aa0 3 0.05
0x405aa8 3 0.05
0x405ab0 3 0.05
0x405ab8 3 0.05
0x405ac0 3 0.05
0x405ac8 3 0.05
0x405af0 1 0.02
0x405af8 1 0.02
0x405b00 1 0.02
0x405b08 1 0.02
0x405b10 1 0.02
sim_num_insn_by_pc.end_dist

ld_text_base             0x00400000 # target_name text (code) segment base
ld_text_size                  23632 # target_name text (code) size in bytes
ld_data_base             0x10000000 # target_name initialized data segment base
ld_data_size                   4096 # target_name init'ed `.data' and uninit'ed `.bss' size in bytes
ld_stack_base            0x7fffc000 # target_name stack segment base (highest address in stack)
ld_stack_size                 16384 # target_name initial stack size
ld_prog_entry            0x00400140 # target_name entry point (initial PC)
ld_environ_base          0x7fff8000 # target_name environment base address address
ld_target_big_endian              0 # target executable endian-ness, non-zero if big endian
mem.page_count                   12 # total number of pages allocated
mem.page_mem                    48k # total size of memory pages allocated
mem.ptab_misses                  12 # total first level page table misses
mem.ptab_accesses            180992 # total page table accesses
mem.ptab_miss_rate           0.0001 # first level page table miss rate

+--------------------------------------------------------------+
| effective code range:         [0, fffffff8]                  |
| effective bpred count:        0                              |
| effective sim cycles:         0                              |
| effective bpred misses:       0                              |
| effective icache misses:      0                              |
+--------------------------------------------------------------+

