sim-profile: SimpleScalar/PISA Tool Set version 3.0 of August, 2003.
Copyright (c) 1994-2003 by Todd M. Austin, Ph.D. and SimpleScalar, LLC.
All Rights Reserved. This version of SimpleScalar is licensed for academic
non-commercial use.  No portion of this work may be used by any commercial
entity, or for any commercial purpose, without the prior written permission
of SimpleScalar, LLC (info@simplescalar.com).

sim: command line: /home/sudiptac/sudiptac/Work/simplesim-3.0/sim-profile -pcstat sim_num_insn ap_spi_cmd1 

sim: simulation started @ Thu May 10 15:03:57 2012, options follow:

sim-profile: This simulator implements a functional simulator with
profiling support.  Run with the `-h' flag to see profiling options
available.

# -config                     # load configuration from a file
# -dumpconfig                 # dump configuration to a file
# -h                    false # print help message    
# -v                    false # verbose operation     
# -d                    false # enable debug message  
# -i                    false # start in Dlite debugger
-seed                       1 # random number generator seed (0 for timer seed)
# -q                    false # initialize and terminate immediately
# -chkpt               <null> # restore EIO trace execution from <fname>
# -redir:sim           <null> # redirect simulator output to file (non-interactive only)
# -redir:prog          <null> # redirect simulated program output to file
-nice                       0 # simulator scheduling priority
-max:inst                   0 # maximum number of inst's to execute
-all                    false # enable all profile options
-iclass                 false # enable instruction class profiling
-iprof                  false # enable instruction profiling
-brprof                 false # enable branch instruction profiling
-amprof                 false # enable address mode profiling
-segprof                false # enable load/store address segment profiling
-tsymprof               false # enable text symbol profiling
-taddrprof              false # enable text address profiling
-dsymprof               false # enable data symbol profiling
-internal               false # include compiler-internal symbols during symbol profiling
# -pcstat        sim_num_insn # profile stat(s) against text addr's (mult uses ok)

sim: ** starting functional simulation **

sim: ** simulation statistics **
sim_num_insn                  36969 # total number of instructions executed
sim_num_refs                  11604 # total number of loads and stores executed
sim_elapsed_time                  1 # total simulation time in seconds
sim_inst_rate            36969.0000 # simulation speed (in insts/sec)

sim_num_insn_by_pc     # total number of instructions executed (by text address)
sim_num_insn_by_pc.count = 825
sim_num_insn_by_pc.total = 36968
sim_num_insn_by_pc.imin = 0x400140
sim_num_insn_by_pc.imax = 0x405d70
sim_num_insn_by_pc.average =  44.8097
sim_num_insn_by_pc.std_dev = 194.4989
sim_num_insn_by_pc.overflows = 0
# pdf == prob dist fn, cdf == cumulative dist fn
#          index      count    pdf 
sim_num_insn_by_pc.start_dist
0x400140 1 0.00
0x400148 1 0.00
0x400150 1 0.00
0x400158 1 0.00
0x400160 1 0.00
0x400168 1 0.00
0x400170 1 0.00
0x400178 1 0.00
0x400180 1 0.00
0x400188 1 0.00
0x400190 1 0.00
0x400198 1 0.00
0x4001a0 1 0.00
0x4001a8 1 0.00
0x4001b0 1 0.00
0x4001b8 1 0.00
0x4001c0 1 0.00
0x4001c8 1 0.00
0x4001d0 1 0.00
0x4001d8 1 0.00
0x4001e0 1 0.00
0x4002f0 1000 2.71
0x4002f8 1000 2.71
0x400300 1000 2.71
0x400308 1000 2.71
0x400310 1000 2.71
0x400318 1000 2.71
0x400340 1000 2.71
0x400748 1000 2.71
0x400750 1000 2.71
0x400758 1000 2.71
0x400760 1000 2.71
0x400768 1000 2.71
0x400770 1000 2.71
0x400778 1000 2.71
0x400780 1 0.00
0x400788 1 0.00
0x400790 1 0.00
0x400798 1 0.00
0x4007a0 1 0.00
0x4007a8 1 0.00
0x4007b0 1 0.00
0x4007b8 1 0.00
0x4007c0 1 0.00
0x4007c8 1 0.00
0x4007d0 1000 2.71
0x4007d8 1000 2.71
0x4007e0 1000 2.71
0x4007e8 1000 2.71
0x4007f0 1000 2.71
0x400810 1000 2.71
0x400818 1000 2.71
0x400838 1000 2.71
0x400840 1000 2.71
0x400848 1000 2.71
0x4008c8 1000 2.71
0x4008d0 1000 2.71
0x4008d8 1000 2.71
0x4008e0 1000 2.71
0x400950 1000 2.71
0x400958 1000 2.71
0x400960 1000 2.71
0x400968 1 0.00
0x400970 1 0.00
0x400978 1 0.00
0x400980 1 0.00
0x400988 1 0.00
0x400990 1 0.00
0x400998 1 0.00
0x4009a0 1 0.00
0x4009b0 1 0.00
0x4009b8 1 0.00
0x4009c0 1 0.00
0x4009c8 1 0.00
0x4009d0 1 0.00
0x4009d8 1 0.00
0x4009e0 1 0.00
0x4009e8 1 0.00
0x4009f0 1 0.00
0x4009f8 1 0.00
0x400a00 1 0.00
0x400a08 1 0.00
0x400a10 1 0.00
0x400a18 1 0.00
0x400a20 1 0.00
0x400a28 1 0.00
0x400a30 1 0.00
0x400a38 1 0.00
0x400a40 1 0.00
0x400a48 1 0.00
0x400a50 1 0.00
0x400a58 1 0.00
0x400a60 1 0.00
0x400b10 1 0.00
0x400b18 1 0.00
0x400b20 1 0.00
0x400b28 1 0.00
0x400b30 1 0.00
0x400b80 1 0.00
0x400b88 1 0.00
0x400b90 1 0.00
0x400b98 1 0.00
0x400ba0 1 0.00
0x400ba8 1 0.00
0x400bb0 1 0.00
0x400bb8 1 0.00
0x400bc0 1 0.00
0x400bc8 1 0.00
0x400bd0 1 0.00
0x400bd8 1 0.00
0x400be8 1 0.00
0x400bf0 1 0.00
0x400bf8 1 0.00
0x400c00 1 0.00
0x400c08 1 0.00
0x400e20 1 0.00
0x400e28 1 0.00
0x400e30 1 0.00
0x400e38 1 0.00
0x400e40 1 0.00
0x400e48 1 0.00
0x400e50 1 0.00
0x400e70 1 0.00
0x400e90 1 0.00
0x400e98 1 0.00
0x400ea0 1 0.00
0x400ea8 1 0.00
0x400eb0 1 0.00
0x400eb8 1 0.00
0x400ed8 1 0.00
0x400ee0 1 0.00
0x400ee8 1 0.00
0x400ef0 1 0.00
0x400f10 1 0.00
0x400f18 1 0.00
0x400f20 1 0.00
0x400f28 1 0.00
0x400f30 1 0.00
0x400f38 1 0.00
0x400f40 1 0.00
0x400f48 1 0.00
0x400f50 1 0.00
0x400f58 1 0.00
0x400f60 1 0.00
0x400f68 1 0.00
0x400f70 1 0.00
0x400f78 1 0.00
0x400f80 1 0.00
0x400f88 1 0.00
0x400f90 1 0.00
0x400f98 1 0.00
0x400fa0 1 0.00
0x400fa8 1 0.00
0x400fb0 1 0.00
0x400fb8 1 0.00
0x400fc0 1 0.00
0x400fc8 1 0.00
0x400fd8 1 0.00
0x400fe0 1 0.00
0x400fe8 1 0.00
0x400ff0 1 0.00
0x400ff8 1 0.00
0x401000 1 0.00
0x401008 1 0.00
0x401010 1 0.00
0x401018 1 0.00
0x401020 1 0.00
0x401028 1 0.00
0x401030 1 0.00
0x401038 1 0.00
0x401040 1 0.00
0x401048 1 0.00
0x401050 1 0.00
0x401058 1 0.00
0x401060 1 0.00
0x401068 1 0.00
0x401070 1 0.00
0x401078 1 0.00
0x401080 1 0.00
0x401088 1 0.00
0x401090 1 0.00
0x401098 1 0.00
0x4010a8 1 0.00
0x4010b0 1 0.00
0x4010b8 1 0.00
0x4010c0 1 0.00
0x4010c8 1 0.00
0x4010d0 1 0.00
0x4010d8 1 0.00
0x4010e0 1 0.00
0x4010e8 1 0.00
0x4010f0 1 0.00
0x4010f8 1 0.00
0x401100 1 0.00
0x401108 1 0.00
0x401110 1 0.00
0x401118 1 0.00
0x401120 1 0.00
0x401128 1 0.00
0x401158 1 0.00
0x401160 1 0.00
0x401170 1 0.00
0x401178 1 0.00
0x401190 1 0.00
0x401198 1 0.00
0x4011a0 1 0.00
0x4011a8 1 0.00
0x4011b8 1 0.00
0x4011c0 1 0.00
0x4011c8 1 0.00
0x4011d0 1 0.00
0x4011d8 1 0.00
0x401460 1 0.00
0x401468 1 0.00
0x401470 1 0.00
0x401478 1 0.00
0x401488 1 0.00
0x401490 1 0.00
0x401498 1 0.00
0x4014a0 1 0.00
0x4014a8 1 0.00
0x4014b0 1 0.00
0x4014b8 1 0.00
0x4014c0 1 0.00
0x4014c8 1 0.00
0x4014d0 1 0.00
0x4014d8 1 0.00
0x4014e0 1 0.00
0x4014e8 1 0.00
0x4014f0 1 0.00
0x4014f8 1 0.00
0x401500 1 0.00
0x401508 1 0.00
0x401510 1 0.00
0x401518 1 0.00
0x401520 1 0.00
0x401528 1 0.00
0x401530 1 0.00
0x401548 1 0.00
0x401550 1 0.00
0x401558 1 0.00
0x401560 1 0.00
0x401568 1 0.00
0x401570 1 0.00
0x401580 1 0.00
0x401588 1 0.00
0x401920 1 0.00
0x401928 1 0.00
0x401930 1 0.00
0x401938 1 0.00
0x401940 1 0.00
0x401948 1 0.00
0x401950 1 0.00
0x401958 1 0.00
0x401960 1 0.00
0x401968 1 0.00
0x401970 1 0.00
0x401978 1 0.00
0x401980 1 0.00
0x401988 1 0.00
0x401990 1 0.00
0x401998 1 0.00
0x4019a0 1 0.00
0x4019a8 1 0.00
0x4019b0 1 0.00
0x4019b8 1 0.00
0x4019c0 1 0.00
0x4019c8 1 0.00
0x4019d0 1 0.00
0x4019d8 1 0.00
0x4019e0 1 0.00
0x4019e8 1 0.00
0x401ad0 1 0.00
0x401ad8 1 0.00
0x401ae0 1 0.00
0x401ae8 1 0.00
0x401af0 1 0.00
0x401af8 1 0.00
0x401b00 1 0.00
0x401b10 1 0.00
0x401b18 1 0.00
0x401b20 1 0.00
0x401b28 1 0.00
0x401b30 1 0.00
0x401b38 1 0.00
0x401b40 1 0.00
0x401b48 1 0.00
0x401b50 1 0.00
0x401b58 1 0.00
0x401b60 1 0.00
0x401b68 1 0.00
0x401b70 1 0.00
0x401b78 1 0.00
0x401b80 1 0.00
0x401b88 1 0.00
0x401b90 1 0.00
0x401e28 1 0.00
0x401e30 1 0.00
0x401e38 1 0.00
0x401e40 1 0.00
0x401e48 1 0.00
0x401e50 1 0.00
0x401e58 1 0.00
0x401e60 1 0.00
0x401e70 4 0.01
0x401e78 4 0.01
0x401e80 4 0.01
0x401e88 4 0.01
0x401e90 4 0.01
0x401e98 4 0.01
0x401ea0 4 0.01
0x401ea8 1 0.00
0x401eb0 1 0.00
0x401eb8 1 0.00
0x401ec0 1 0.00
0x401ec8 1 0.00
0x401ed0 1 0.00
0x401ed8 3 0.01
0x401ee0 3 0.01
0x401ef8 3 0.01
0x401f00 3 0.01
0x401f08 3 0.01
0x401f10 3 0.01
0x401f18 3 0.01
0x401f20 3 0.01
0x401f28 1 0.00
0x401f30 1 0.00
0x401f38 3 0.01
0x401f40 3 0.01
0x401f48 3 0.01
0x401f50 3 0.01
0x401f68 3 0.01
0x401f70 3 0.01
0x401f78 3 0.01
0x401f80 3 0.01
0x401fa8 3 0.01
0x401fb0 3 0.01
0x401fb8 3 0.01
0x401fc0 2 0.01
0x401fc8 2 0.01
0x401fd0 2 0.01
0x401fd8 2 0.01
0x401fe0 2 0.01
0x401ff8 3 0.01
0x402000 3 0.01
0x402008 1 0.00
0x402010 1 0.00
0x402018 1 0.00
0x402020 1 0.00
0x402028 3 0.01
0x402030 3 0.01
0x402038 2 0.01
0x402040 2 0.01
0x402048 2 0.01
0x402050 2 0.01
0x402058 1 0.00
0x402060 1 0.00
0x402068 1 0.00
0x402070 1 0.00
0x402078 1 0.00
0x402098 1 0.00
0x4020a0 3 0.01
0x4020a8 3 0.01
0x4020b0 3 0.01
0x4020b8 4 0.01
0x4020c0 4 0.01
0x4020c8 4 0.01
0x4020d0 4 0.01
0x4020d8 4 0.01
0x4020e0 4 0.01
0x402110 1 0.00
0x402118 1 0.00
0x402120 1 0.00
0x402128 1 0.00
0x402160 1 0.00
0x402168 1 0.00
0x402170 1 0.00
0x402178 1 0.00
0x402180 1 0.00
0x402188 1 0.00
0x402190 3 0.01
0x402198 3 0.01
0x4021a0 3 0.01
0x4021a8 3 0.01
0x4021b0 3 0.01
0x4021b8 3 0.01
0x4021c0 3 0.01
0x4021c8 3 0.01
0x4021d0 2 0.01
0x4021d8 2 0.01
0x4021e0 2 0.01
0x4021e8 2 0.01
0x4021f0 2 0.01
0x4021f8 2 0.01
0x402200 1 0.00
0x402208 1 0.00
0x402210 1 0.00
0x402218 1 0.00
0x402220 1 0.00
0x402228 1 0.00
0x402230 1 0.00
0x402238 1 0.00
0x402240 1 0.00
0x402248 1 0.00
0x402250 1 0.00
0x402258 1 0.00
0x402260 1 0.00
0x402268 1 0.00
0x402270 1 0.00
0x402278 1 0.00
0x402280 1 0.00
0x402298 1 0.00
0x4022a0 1 0.00
0x4022a8 1 0.00
0x4022b0 3 0.01
0x4022b8 3 0.01
0x4022c0 3 0.01
0x4022c8 3 0.01
0x4022d0 3 0.01
0x4022d8 3 0.01
0x4022e0 3 0.01
0x4022e8 3 0.01
0x4022f0 3 0.01
0x4022f8 3 0.01
0x402300 4 0.01
0x402308 4 0.01
0x402310 4 0.01
0x402318 4 0.01
0x402320 4 0.01
0x402328 4 0.01
0x402330 4 0.01
0x402338 4 0.01
0x402340 4 0.01
0x402348 4 0.01
0x402378 4 0.01
0x402380 4 0.01
0x402388 4 0.01
0x402390 390 1.05
0x402398 390 1.05
0x4023a0 390 1.05
0x4023a8 390 1.05
0x4023b0 390 1.05
0x4023b8 390 1.05
0x4023c0 390 1.05
0x4023c8 390 1.05
0x4023d0 390 1.05
0x4023d8 390 1.05
0x4023e0 390 1.05
0x4023e8 390 1.05
0x4023f0 4 0.01
0x4023f8 4 0.01
0x402400 4 0.01
0x402408 12 0.03
0x402410 12 0.03
0x402418 12 0.03
0x402420 12 0.03
0x402428 4 0.01
0x402430 4 0.01
0x402458 4 0.01
0x402460 4 0.01
0x402630 1 0.00
0x402638 1 0.00
0x402640 1 0.00
0x402648 1 0.00
0x402650 1 0.00
0x402658 1 0.00
0x402660 1 0.00
0x402668 1 0.00
0x402670 1 0.00
0x402678 1 0.00
0x402688 1 0.00
0x402690 1 0.00
0x402698 1 0.00
0x4026a0 1 0.00
0x4026a8 1 0.00
0x4026b0 1 0.00
0x4026b8 1 0.00
0x4026c0 1 0.00
0x4026c8 1 0.00
0x4026d0 1 0.00
0x4026d8 1 0.00
0x4026e0 1 0.00
0x4026e8 1 0.00
0x4026f0 1 0.00
0x4026f8 1 0.00
0x402700 1 0.00
0x402708 1 0.00
0x402710 1 0.00
0x402718 1 0.00
0x402720 1 0.00
0x402728 1 0.00
0x402730 1 0.00
0x402738 1 0.00
0x402740 1 0.00
0x402748 1 0.00
0x402798 1 0.00
0x4027a0 1 0.00
0x4027a8 1 0.00
0x4027b0 1 0.00
0x4027b8 1 0.00
0x4027c0 1 0.00
0x4027c8 1 0.00
0x4027e0 1 0.00
0x4027e8 1 0.00
0x4027f0 1 0.00
0x4027f8 1 0.00
0x402800 1 0.00
0x402808 1 0.00
0x402810 1 0.00
0x402818 1 0.00
0x402820 1 0.00
0x402828 1 0.00
0x402830 1 0.00
0x402838 1 0.00
0x402840 1 0.00
0x402890 1 0.00
0x402898 1 0.00
0x4028a0 1 0.00
0x4028a8 1 0.00
0x4028b0 1 0.00
0x4028b8 1 0.00
0x4028c0 1 0.00
0x4028c8 1 0.00
0x4028d0 1 0.00
0x4028d8 1 0.00
0x4028e0 1 0.00
0x4028e8 1 0.00
0x4028f0 1 0.00
0x4028f8 1 0.00
0x402900 1 0.00
0x402908 1 0.00
0x402910 1 0.00
0x402918 1 0.00
0x402920 1 0.00
0x402928 1 0.00
0x402930 1 0.00
0x402938 1 0.00
0x402940 1 0.00
0x402948 1 0.00
0x402950 1 0.00
0x402958 1 0.00
0x402960 1 0.00
0x402968 1 0.00
0x402a20 1 0.00
0x402a28 1 0.00
0x402a30 1 0.00
0x402a38 1 0.00
0x402a40 1 0.00
0x402b90 1 0.00
0x402b98 1 0.00
0x402ea8 1 0.00
0x402eb0 1 0.00
0x402eb8 1 0.00
0x402ec0 1 0.00
0x402ec8 1 0.00
0x402ed0 1 0.00
0x402ed8 1 0.00
0x402ee0 1 0.00
0x402ee8 1 0.00
0x402ef0 1 0.00
0x402ef8 1 0.00
0x402f00 1 0.00
0x402f28 1 0.00
0x402f30 1 0.00
0x402f60 1 0.00
0x402f68 1 0.00
0x402f70 1 0.00
0x402f78 1 0.00
0x4033a8 2 0.01
0x4033b0 2 0.01
0x4033b8 2 0.01
0x4033c0 2 0.01
0x4033c8 2 0.01
0x4033d0 2 0.01
0x4033d8 2 0.01
0x4033e0 2 0.01
0x4033e8 2 0.01
0x4033f0 2 0.01
0x4033f8 2 0.01
0x403400 2 0.01
0x403408 2 0.01
0x403410 2 0.01
0x403418 2 0.01
0x403420 2 0.01
0x403428 2 0.01
0x403430 2 0.01
0x403438 2 0.01
0x403440 2 0.01
0x403448 2 0.01
0x403450 2 0.01
0x403458 2 0.01
0x403460 2 0.01
0x403468 2 0.01
0x403470 2 0.01
0x403478 2 0.01
0x403480 2 0.01
0x403638 2 0.01
0x403640 2 0.01
0x403648 1 0.00
0x403650 1 0.00
0x403658 1 0.00
0x403660 1 0.00
0x403668 1 0.00
0x403670 1 0.00
0x403678 1 0.00
0x4036e0 2 0.01
0x4036e8 2 0.01
0x4036f0 2 0.01
0x4036f8 2 0.01
0x403730 2 0.01
0x403738 2 0.01
0x403740 2 0.01
0x403748 2 0.01
0x403750 2 0.01
0x403758 2 0.01
0x403760 2 0.01
0x403768 2 0.01
0x403770 2 0.01
0x403778 2 0.01
0x403780 2 0.01
0x403a80 2 0.01
0x403a88 2 0.01
0x403a90 2 0.01
0x403a98 2 0.01
0x403aa0 2 0.01
0x403aa8 2 0.01
0x403ab0 2 0.01
0x403ab8 2 0.01
0x403ac0 2 0.01
0x403ad8 2 0.01
0x403ae0 2 0.01
0x403ae8 2 0.01
0x403af0 2 0.01
0x403af8 2 0.01
0x403b00 2 0.01
0x403b08 2 0.01
0x403b10 2 0.01
0x403b18 2 0.01
0x403b20 2 0.01
0x403b28 2 0.01
0x403fc0 2 0.01
0x403fc8 2 0.01
0x403fd0 2 0.01
0x403fd8 2 0.01
0x403fe0 2 0.01
0x403fe8 2 0.01
0x403ff0 2 0.01
0x403ff8 2 0.01
0x404000 2 0.01
0x404008 2 0.01
0x404010 2 0.01
0x404018 2 0.01
0x404020 2 0.01
0x404028 2 0.01
0x404030 2 0.01
0x404048 2 0.01
0x404050 2 0.01
0x404058 2 0.01
0x404060 2 0.01
0x404068 2 0.01
0x404070 2 0.01
0x404078 2 0.01
0x4040a0 2 0.01
0x4040a8 2 0.01
0x4040b0 2 0.01
0x4040b8 2 0.01
0x4040c0 2 0.01
0x4040f8 2 0.01
0x404100 2 0.01
0x404108 2 0.01
0x404110 2 0.01
0x404118 2 0.01
0x404120 2 0.01
0x404128 2 0.01
0x404130 2 0.01
0x404138 2 0.01
0x404140 2 0.01
0x404148 2 0.01
0x404150 2 0.01
0x404158 2 0.01
0x404160 2 0.01
0x404168 2 0.01
0x404170 2 0.01
0x404178 2 0.01
0x404180 2 0.01
0x404188 2 0.01
0x404190 2 0.01
0x404198 2 0.01
0x4041a0 2 0.01
0x4041a8 2 0.01
0x4041b0 2 0.01
0x4041b8 2 0.01
0x4041c0 2 0.01
0x4041c8 2 0.01
0x4041d0 2 0.01
0x4041d8 2 0.01
0x4041e0 2 0.01
0x4041e8 1 0.00
0x4041f0 1 0.00
0x404208 1 0.00
0x404210 1 0.00
0x404218 1 0.00
0x404220 1 0.00
0x404228 1 0.00
0x404230 1 0.00
0x404238 1 0.00
0x404270 1 0.00
0x404278 1 0.00
0x404280 1 0.00
0x4042a8 2 0.01
0x4042b0 2 0.01
0x4042b8 2 0.01
0x4042c0 2 0.01
0x4042c8 2 0.01
0x4042d0 2 0.01
0x4042d8 2 0.01
0x4042e0 2 0.01
0x4042e8 2 0.01
0x404318 2 0.01
0x4043e0 2 0.01
0x4043e8 2 0.01
0x4043f0 2 0.01
0x404418 2 0.01
0x404420 2 0.01
0x404430 2 0.01
0x404438 2 0.01
0x404440 2 0.01
0x404448 2 0.01
0x404450 2 0.01
0x404458 2 0.01
0x404488 2 0.01
0x404490 2 0.01
0x404498 2 0.01
0x4044a0 2 0.01
0x4044b8 2 0.01
0x4044c0 2 0.01
0x4044c8 2 0.01
0x4044d0 2 0.01
0x4044d8 2 0.01
0x4044e0 2 0.01
0x4044e8 2 0.01
0x4044f0 2 0.01
0x404a88 3 0.01
0x404a90 3 0.01
0x404a98 3 0.01
0x404aa0 3 0.01
0x404aa8 3 0.01
0x404ab0 3 0.01
0x404ab8 3 0.01
0x404ac0 3 0.01
0x404ac8 3 0.01
0x404ad0 3 0.01
0x404ad8 3 0.01
0x404ae0 3 0.01
0x404ae8 3 0.01
0x404af0 3 0.01
0x404af8 3 0.01
0x404ca0 2 0.01
0x404ca8 2 0.01
0x404cb0 2 0.01
0x404cb8 2 0.01
0x404cc0 2 0.01
0x404cc8 2 0.01
0x405140 3 0.01
0x405148 3 0.01
0x405150 3 0.01
0x405158 3 0.01
0x405170 3 0.01
0x405178 3 0.01
0x405180 3 0.01
0x405188 3 0.01
0x405190 3 0.01
0x405198 3 0.01
0x4051a0 3 0.01
0x4051a8 3 0.01
0x4051b0 3 0.01
0x4051b8 3 0.01
0x4051c0 3 0.01
0x405a20 2 0.01
0x405a28 2 0.01
0x405a30 2 0.01
0x405a38 2 0.01
0x405a40 2 0.01
0x405a48 2 0.01
0x405a50 2 0.01
0x405a58 2 0.01
0x405a60 2 0.01
0x405a68 2 0.01
0x405a70 2 0.01
0x405a78 1 0.00
0x405a80 1 0.00
0x405a88 1 0.00
0x405a90 1 0.00
0x405a98 1 0.00
0x405aa0 1 0.00
0x405aa8 1 0.00
0x405ab0 1 0.00
0x405ad8 1 0.00
0x405ae0 1 0.00
0x405b20 1 0.00
0x405b28 1 0.00
0x405b30 2 0.01
0x405b38 2 0.01
0x405b40 2 0.01
0x405b48 2 0.01
0x405b50 2 0.01
0x405c30 2 0.01
0x405c38 2 0.01
0x405c40 2 0.01
0x405c48 2 0.01
0x405c50 2 0.01
0x405ce0 3 0.01
0x405ce8 3 0.01
0x405cf0 3 0.01
0x405d00 3 0.01
0x405d08 3 0.01
0x405d10 3 0.01
0x405d18 3 0.01
0x405d20 3 0.01
0x405d28 3 0.01
0x405d50 1 0.00
0x405d58 1 0.00
0x405d60 1 0.00
0x405d68 1 0.00
0x405d70 1 0.00
sim_num_insn_by_pc.end_dist

ld_text_base             0x00400000 # program text (code) segment base
ld_text_size                  24240 # program text (code) size in bytes
ld_data_base             0x10000000 # program initialized data segment base
ld_data_size                   4096 # program init'ed `.data' and uninit'ed `.bss' size in bytes
ld_stack_base            0x7fffc000 # program stack segment base (highest address in stack)
ld_stack_size                 16384 # program initial stack size
ld_prog_entry            0x00400140 # program entry point (initial PC)
ld_environ_base          0x7fff8000 # program environment base address address
ld_target_big_endian              0 # target executable endian-ness, non-zero if big endian
mem.page_count                   12 # total number of pages allocated
mem.page_mem                    48k # total size of memory pages allocated
mem.ptab_misses                  12 # total first level page table misses
mem.ptab_accesses            324336 # total page table accesses
mem.ptab_miss_rate           0.0000 # first level page table miss rate

+--------------------------------------------------------------+
| effective code range:         [0, fffffff8]                  |
| effective bpred count:        0                              |
| effective sim cycles:         0                              |
| effective bpred misses:       0                              |
| effective icache misses:      0                              |
+--------------------------------------------------------------+

