#!/bin/sh
../../../../cde-exec 'sim-outorder' "$@"
