sim-profile: SimpleScalar/PISA Tool Set version 3.0 of August, 2003.
Copyright (c) 1994-2003 by Todd M. Austin, Ph.D. and SimpleScalar, LLC.
All Rights Reserved. This version of SimpleScalar is licensed for academic
non-commercial use.  No portion of this work may be used by any commercial
entity, or for any commercial purpose, without the prior written permission
of SimpleScalar, LLC (info@simplescalar.com).

sim: command line: /home/sudiptac/sudiptac/Work/simplesim-3.0/sim-profile -pcstat sim_num_insn st 

sim: simulation started @ Thu Jun  7 15:30:42 2012, options follow:

sim-profile: This simulator implements a functional simulator with
profiling support.  Run with the `-h' flag to see profiling options
available.

# -config                     # load configuration from a file
# -dumpconfig                 # dump configuration to a file
# -h                    false # print help message    
# -v                    false # verbose operation     
# -d                    false # enable debug message  
# -i                    false # start in Dlite debugger
-seed                       1 # random number generator seed (0 for timer seed)
# -q                    false # initialize and terminate immediately
# -chkpt               <null> # restore EIO trace execution from <fname>
# -redir:sim           <null> # redirect simulator output to file (non-interactive only)
# -redir:prog          <null> # redirect simulated target_name output to file
-nice                       0 # simulator scheduling priority
-max:inst                   0 # maximum number of inst's to execute
-all                    false # enable all profile options
-iclass                 false # enable instruction class profiling
-iprof                  false # enable instruction profiling
-brprof                 false # enable branch instruction profiling
-amprof                 false # enable address mode profiling
-segprof                false # enable load/store address segment profiling
-tsymprof               false # enable text symbol profiling
-taddrprof              false # enable text address profiling
-dsymprof               false # enable data symbol profiling
-internal               false # include compiler-internal symbols during symbol profiling
# -pcstat        sim_num_insn # profile stat(s) against text addr's (mult uses ok)

sim: ** starting functional simulation **

sim: ** simulation statistics **
sim_num_insn                 131077 # total number of instructions executed
sim_num_refs                  19672 # total number of loads and stores executed
sim_elapsed_time                  1 # total simulation time in seconds
sim_inst_rate           131077.0000 # simulation speed (in insts/sec)

sim_num_insn_by_pc     # total number of instructions executed (by text address)
sim_num_insn_by_pc.count = 946
sim_num_insn_by_pc.total = 131076
sim_num_insn_by_pc.imin = 0x400140
sim_num_insn_by_pc.imax = 0x405b60
sim_num_insn_by_pc.average = 138.5581
sim_num_insn_by_pc.std_dev = 502.5509
sim_num_insn_by_pc.overflows = 0
# pdf == prob dist fn, cdf == cumulative dist fn
#          index      count    pdf 
sim_num_insn_by_pc.start_dist
0x400140 1 0.00
0x400148 1 0.00
0x400150 1 0.00
0x400158 1 0.00
0x400160 1 0.00
0x400168 1 0.00
0x400170 1 0.00
0x400178 1 0.00
0x400180 1 0.00
0x400188 1 0.00
0x400190 1 0.00
0x400198 1 0.00
0x4001a0 1 0.00
0x4001a8 1 0.00
0x4001b0 1 0.00
0x4001b8 1 0.00
0x4001c0 1 0.00
0x4001c8 1 0.00
0x4001d0 1 0.00
0x4001d8 1 0.00
0x4001e0 1 0.00
0x4001f0 1 0.00
0x4001f8 1 0.00
0x400200 1 0.00
0x400208 1 0.00
0x400210 1 0.00
0x400218 1 0.00
0x400220 1 0.00
0x400228 1 0.00
0x400230 1 0.00
0x400238 1 0.00
0x400240 1 0.00
0x400248 1 0.00
0x400250 1 0.00
0x400258 1 0.00
0x400260 1 0.00
0x400268 1 0.00
0x400270 1 0.00
0x400278 1 0.00
0x400280 1 0.00
0x400288 1 0.00
0x400290 1 0.00
0x400298 1 0.00
0x4002a0 1 0.00
0x4002a8 1 0.00
0x4002b0 1 0.00
0x4002b8 1 0.00
0x4002c0 1 0.00
0x4002c8 1 0.00
0x4002d0 1 0.00
0x4002d8 1 0.00
0x4002e0 1 0.00
0x4002e8 1 0.00
0x4002f0 1 0.00
0x4002f8 1 0.00
0x400300 1 0.00
0x400308 1 0.00
0x400310 1 0.00
0x400318 1 0.00
0x400320 1 0.00
0x400328 1 0.00
0x400330 1 0.00
0x400338 1 0.00
0x400340 1 0.00
0x400348 1 0.00
0x400350 1 0.00
0x400358 1 0.00
0x400360 1 0.00
0x400368 1 0.00
0x400370 1 0.00
0x400378 1 0.00
0x400380 1 0.00
0x400388 2 0.00
0x400390 2 0.00
0x400398 2000 1.53
0x4003a0 2000 1.53
0x4003a8 2000 1.53
0x4003b0 2000 1.53
0x4003b8 2000 1.53
0x4003c0 2000 1.53
0x4003c8 2000 1.53
0x4003d0 2000 1.53
0x4003d8 2 0.00
0x4003e0 2 0.00
0x4003e8 2 0.00
0x4003f0 2 0.00
0x4003f8 4000 3.05
0x400400 4000 3.05
0x400408 2 0.00
0x400410 2 0.00
0x400418 2 0.00
0x400420 2 0.00
0x400428 2 0.00
0x400430 2 0.00
0x400438 2 0.00
0x400440 2 0.00
0x400448 2 0.00
0x400450 2 0.00
0x400458 2 0.00
0x400460 2 0.00
0x400468 2 0.00
0x400470 2000 1.53
0x400478 2000 1.53
0x400480 2000 1.53
0x400488 2000 1.53
0x400490 2000 1.53
0x400498 2000 1.53
0x4004a0 2000 1.53
0x4004a8 2000 1.53
0x4004b0 2 0.00
0x4004b8 2 0.00
0x4004c0 2 0.00
0x4004c8 2 0.00
0x4004d0 2 0.00
0x4004d8 2 0.00
0x4004e0 2 0.00
0x4004e8 2 0.00
0x4004f0 2 0.00
0x4004f8 2 0.00
0x400500 2 0.00
0x400508 1 0.00
0x400510 1 0.00
0x400518 1 0.00
0x400520 1 0.00
0x400528 1 0.00
0x400530 1 0.00
0x400538 1 0.00
0x400540 1 0.00
0x400548 1 0.00
0x400550 1 0.00
0x400558 1 0.00
0x400560 1 0.00
0x400568 1000 0.76
0x400570 1000 0.76
0x400578 1000 0.76
0x400580 1000 0.76
0x400588 1000 0.76
0x400590 1000 0.76
0x400598 1000 0.76
0x4005a0 1000 0.76
0x4005a8 1000 0.76
0x4005b0 1000 0.76
0x4005b8 1000 0.76
0x4005c0 1 0.00
0x4005c8 1 0.00
0x4005d0 1 0.00
0x4005d8 1 0.00
0x4005e0 1 0.00
0x4005e8 1 0.00
0x4005f0 1 0.00
0x4005f8 1 0.00
0x400600 2 0.00
0x400608 2 0.00
0x400610 2 0.00
0x400618 2 0.00
0x400620 2 0.00
0x400628 2 0.00
0x400630 2 0.00
0x400638 2 0.00
0x400640 2000 1.53
0x400648 2000 1.53
0x400650 2000 1.53
0x400658 2000 1.53
0x400660 2000 1.53
0x400668 2000 1.53
0x400670 2000 1.53
0x400678 2000 1.53
0x400680 2000 1.53
0x400688 2000 1.53
0x400690 2000 1.53
0x400698 2000 1.53
0x4006a0 2 0.00
0x4006a8 2 0.00
0x4006b0 2 0.00
0x4006b8 2 0.00
0x4006c0 2 0.00
0x4006c8 2 0.00
0x4006d0 2000 1.53
0x4006d8 2000 1.53
0x4006e0 2000 1.53
0x4006e8 2000 1.53
0x4006f0 2000 1.53
0x4006f8 2000 1.53
0x400700 2000 1.53
0x400708 2000 1.53
0x400710 2000 1.53
0x400718 2000 1.53
0x400720 2000 1.53
0x400728 2000 1.53
0x400730 2000 1.53
0x400738 2000 1.53
0x400740 2000 1.53
0x400748 2000 1.53
0x400750 2000 1.53
0x400758 2000 1.53
0x400760 2000 1.53
0x400768 2000 1.53
0x400770 2000 1.53
0x400778 2000 1.53
0x400780 2000 1.53
0x400788 2000 1.53
0x400790 2000 1.53
0x4007a0 1 0.00
0x4007a8 1 0.00
0x4007b0 1 0.00
0x4007b8 1 0.00
0x4007c0 1 0.00
0x4007c8 1 0.00
0x4007d0 1 0.00
0x4007d8 1 0.00
0x4007e0 1 0.00
0x4007e8 1 0.00
0x4007f0 1 0.00
0x4007f8 1 0.00
0x400800 1 0.00
0x400808 1 0.00
0x400810 1 0.00
0x400818 1 0.00
0x400820 1 0.00
0x400828 1 0.00
0x400830 1 0.00
0x400838 1 0.00
0x400840 1 0.00
0x400848 1 0.00
0x400850 1 0.00
0x400900 1 0.00
0x400908 1 0.00
0x400910 1 0.00
0x400918 1 0.00
0x400920 1 0.00
0x400970 1 0.00
0x400978 1 0.00
0x400980 1 0.00
0x400988 1 0.00
0x400990 1 0.00
0x400998 1 0.00
0x4009a0 1 0.00
0x4009a8 1 0.00
0x4009b0 1 0.00
0x4009b8 1 0.00
0x4009c0 1 0.00
0x4009c8 1 0.00
0x4009d8 1 0.00
0x4009e0 1 0.00
0x4009e8 1 0.00
0x4009f0 1 0.00
0x4009f8 1 0.00
0x400c10 1 0.00
0x400c18 1 0.00
0x400c20 1 0.00
0x400c28 1 0.00
0x400c30 1 0.00
0x400c38 1 0.00
0x400c40 1 0.00
0x400c60 1 0.00
0x400c80 1 0.00
0x400c88 1 0.00
0x400c90 1 0.00
0x400c98 1 0.00
0x400ca0 1 0.00
0x400ca8 1 0.00
0x400cc8 1 0.00
0x400cd0 1 0.00
0x400cd8 1 0.00
0x400ce0 1 0.00
0x400d00 1 0.00
0x400d08 1 0.00
0x400d10 1 0.00
0x400d18 1 0.00
0x400d20 1 0.00
0x400d28 1 0.00
0x400d30 1 0.00
0x400d38 1 0.00
0x400d40 1 0.00
0x400d48 1 0.00
0x400d50 1 0.00
0x400d58 1 0.00
0x400d60 1 0.00
0x400d68 1 0.00
0x400d70 1 0.00
0x400d78 1 0.00
0x400d80 1 0.00
0x400d88 1 0.00
0x400d90 1 0.00
0x400d98 1 0.00
0x400da0 1 0.00
0x400da8 1 0.00
0x400db0 1 0.00
0x400db8 1 0.00
0x400dc8 1 0.00
0x400dd0 1 0.00
0x400dd8 1 0.00
0x400de0 1 0.00
0x400de8 1 0.00
0x400df0 1 0.00
0x400df8 1 0.00
0x400e00 1 0.00
0x400e08 1 0.00
0x400e10 1 0.00
0x400e18 1 0.00
0x400e20 1 0.00
0x400e28 1 0.00
0x400e30 1 0.00
0x400e38 1 0.00
0x400e40 1 0.00
0x400e48 1 0.00
0x400e50 1 0.00
0x400e58 1 0.00
0x400e60 1 0.00
0x400e68 1 0.00
0x400e70 1 0.00
0x400e78 1 0.00
0x400e80 1 0.00
0x400e88 1 0.00
0x400e98 1 0.00
0x400ea0 1 0.00
0x400ea8 1 0.00
0x400eb0 1 0.00
0x400eb8 1 0.00
0x400ec0 1 0.00
0x400ec8 1 0.00
0x400ed0 1 0.00
0x400ed8 1 0.00
0x400ee0 1 0.00
0x400ee8 1 0.00
0x400ef0 1 0.00
0x400ef8 1 0.00
0x400f00 1 0.00
0x400f08 1 0.00
0x400f10 1 0.00
0x400f18 1 0.00
0x400f48 1 0.00
0x400f50 1 0.00
0x400f60 1 0.00
0x400f68 1 0.00
0x400f80 1 0.00
0x400f88 1 0.00
0x400f90 1 0.00
0x400f98 1 0.00
0x400fa8 1 0.00
0x400fb0 1 0.00
0x400fb8 1 0.00
0x400fc0 1 0.00
0x400fc8 1 0.00
0x401250 1 0.00
0x401258 1 0.00
0x401260 1 0.00
0x401268 1 0.00
0x401278 1 0.00
0x401280 1 0.00
0x401288 1 0.00
0x401290 1 0.00
0x401298 1 0.00
0x4012a0 1 0.00
0x4012a8 1 0.00
0x4012b0 1 0.00
0x4012b8 1 0.00
0x4012c0 1 0.00
0x4012c8 1 0.00
0x4012d0 1 0.00
0x4012d8 1 0.00
0x4012e0 1 0.00
0x4012e8 1 0.00
0x4012f0 1 0.00
0x4012f8 1 0.00
0x401300 1 0.00
0x401308 1 0.00
0x401310 1 0.00
0x401318 1 0.00
0x401320 1 0.00
0x401338 1 0.00
0x401340 1 0.00
0x401348 1 0.00
0x401350 1 0.00
0x401358 1 0.00
0x401360 1 0.00
0x401370 1 0.00
0x401378 1 0.00
0x401710 1 0.00
0x401718 1 0.00
0x401720 1 0.00
0x401728 1 0.00
0x401730 1 0.00
0x401738 1 0.00
0x401740 1 0.00
0x401748 1 0.00
0x401750 1 0.00
0x401758 1 0.00
0x401760 1 0.00
0x401768 1 0.00
0x401770 1 0.00
0x401778 1 0.00
0x401780 1 0.00
0x401788 1 0.00
0x401790 1 0.00
0x401798 1 0.00
0x4017a0 1 0.00
0x4017a8 1 0.00
0x4017b0 1 0.00
0x4017b8 1 0.00
0x4017c0 1 0.00
0x4017c8 1 0.00
0x4017d0 1 0.00
0x4017d8 1 0.00
0x4018c0 1 0.00
0x4018c8 1 0.00
0x4018d0 1 0.00
0x4018d8 1 0.00
0x4018e0 1 0.00
0x4018e8 1 0.00
0x4018f0 1 0.00
0x401900 1 0.00
0x401908 1 0.00
0x401910 1 0.00
0x401918 1 0.00
0x401920 1 0.00
0x401928 1 0.00
0x401930 1 0.00
0x401938 1 0.00
0x401940 1 0.00
0x401948 1 0.00
0x401950 1 0.00
0x401958 1 0.00
0x401960 1 0.00
0x401968 1 0.00
0x401970 1 0.00
0x401978 1 0.00
0x401980 1 0.00
0x401c18 1 0.00
0x401c20 1 0.00
0x401c28 1 0.00
0x401c30 1 0.00
0x401c38 1 0.00
0x401c40 1 0.00
0x401c48 1 0.00
0x401c50 1 0.00
0x401c60 4 0.00
0x401c68 4 0.00
0x401c70 4 0.00
0x401c78 4 0.00
0x401c80 4 0.00
0x401c88 4 0.00
0x401c90 4 0.00
0x401c98 1 0.00
0x401ca0 1 0.00
0x401ca8 1 0.00
0x401cb0 1 0.00
0x401cb8 1 0.00
0x401cc0 1 0.00
0x401cc8 3 0.00
0x401cd0 3 0.00
0x401ce8 3 0.00
0x401cf0 3 0.00
0x401cf8 3 0.00
0x401d00 3 0.00
0x401d08 3 0.00
0x401d10 3 0.00
0x401d18 1 0.00
0x401d20 1 0.00
0x401d28 3 0.00
0x401d30 3 0.00
0x401d38 3 0.00
0x401d40 3 0.00
0x401d58 3 0.00
0x401d60 3 0.00
0x401d68 3 0.00
0x401d70 3 0.00
0x401d98 3 0.00
0x401da0 3 0.00
0x401da8 3 0.00
0x401db0 2 0.00
0x401db8 2 0.00
0x401dc0 2 0.00
0x401dc8 2 0.00
0x401dd0 2 0.00
0x401de8 3 0.00
0x401df0 3 0.00
0x401df8 1 0.00
0x401e00 1 0.00
0x401e08 1 0.00
0x401e10 1 0.00
0x401e18 3 0.00
0x401e20 3 0.00
0x401e28 2 0.00
0x401e30 2 0.00
0x401e38 2 0.00
0x401e40 2 0.00
0x401e48 1 0.00
0x401e50 1 0.00
0x401e58 1 0.00
0x401e60 1 0.00
0x401e68 1 0.00
0x401e88 1 0.00
0x401e90 3 0.00
0x401e98 3 0.00
0x401ea0 3 0.00
0x401ea8 4 0.00
0x401eb0 4 0.00
0x401eb8 4 0.00
0x401ec0 4 0.00
0x401ec8 4 0.00
0x401ed0 4 0.00
0x401f00 1 0.00
0x401f08 1 0.00
0x401f10 1 0.00
0x401f18 1 0.00
0x401f50 1 0.00
0x401f58 1 0.00
0x401f60 1 0.00
0x401f68 1 0.00
0x401f70 1 0.00
0x401f78 1 0.00
0x401f80 1 0.00
0x401f88 1 0.00
0x401f90 1 0.00
0x401f98 1 0.00
0x401fa0 1 0.00
0x401fa8 1 0.00
0x401fb0 1 0.00
0x401fb8 1 0.00
0x401ff0 1 0.00
0x401ff8 1 0.00
0x402000 1 0.00
0x402008 1 0.00
0x402010 1 0.00
0x402018 1 0.00
0x402020 1 0.00
0x402028 1 0.00
0x402030 1 0.00
0x402038 1 0.00
0x402040 1 0.00
0x402048 1 0.00
0x402088 1 0.00
0x402090 1 0.00
0x402098 1 0.00
0x4020a0 3 0.00
0x4020a8 3 0.00
0x4020b0 3 0.00
0x4020b8 3 0.00
0x4020c0 3 0.00
0x4020c8 3 0.00
0x4020d0 3 0.00
0x4020d8 3 0.00
0x4020e0 3 0.00
0x4020e8 3 0.00
0x4020f0 4 0.00
0x4020f8 4 0.00
0x402100 4 0.00
0x402108 4 0.00
0x402110 4 0.00
0x402118 4 0.00
0x402120 4 0.00
0x402128 4 0.00
0x402130 4 0.00
0x402138 4 0.00
0x402168 4 0.00
0x402170 4 0.00
0x402178 4 0.00
0x402180 390 0.30
0x402188 390 0.30
0x402190 390 0.30
0x402198 390 0.30
0x4021a0 390 0.30
0x4021a8 390 0.30
0x4021b0 390 0.30
0x4021b8 390 0.30
0x4021c0 390 0.30
0x4021c8 390 0.30
0x4021d0 390 0.30
0x4021d8 390 0.30
0x4021e0 4 0.00
0x4021e8 4 0.00
0x4021f0 4 0.00
0x4021f8 12 0.01
0x402200 12 0.01
0x402208 12 0.01
0x402210 12 0.01
0x402218 4 0.00
0x402220 4 0.00
0x402248 4 0.00
0x402250 4 0.00
0x402420 1 0.00
0x402428 1 0.00
0x402430 1 0.00
0x402438 1 0.00
0x402440 1 0.00
0x402448 1 0.00
0x402450 1 0.00
0x402458 1 0.00
0x402460 1 0.00
0x402468 1 0.00
0x402478 1 0.00
0x402480 1 0.00
0x402488 1 0.00
0x402490 1 0.00
0x402498 1 0.00
0x4024a0 1 0.00
0x4024a8 1 0.00
0x4024b0 1 0.00
0x4024b8 1 0.00
0x4024c0 1 0.00
0x4024c8 1 0.00
0x4024d0 1 0.00
0x4024d8 1 0.00
0x4024e0 1 0.00
0x4024e8 1 0.00
0x4024f0 1 0.00
0x4024f8 1 0.00
0x402500 1 0.00
0x402508 1 0.00
0x402510 1 0.00
0x402518 1 0.00
0x402520 1 0.00
0x402528 1 0.00
0x402530 1 0.00
0x402538 1 0.00
0x402588 1 0.00
0x402590 1 0.00
0x402598 1 0.00
0x4025a0 1 0.00
0x4025a8 1 0.00
0x4025b0 1 0.00
0x4025b8 1 0.00
0x4025d0 1 0.00
0x4025d8 1 0.00
0x4025e0 1 0.00
0x4025e8 1 0.00
0x4025f0 1 0.00
0x4025f8 1 0.00
0x402600 1 0.00
0x402608 1 0.00
0x402610 1 0.00
0x402618 1 0.00
0x402620 1 0.00
0x402628 1 0.00
0x402630 1 0.00
0x402680 1 0.00
0x402688 1 0.00
0x402690 1 0.00
0x402698 1 0.00
0x4026a0 1 0.00
0x4026a8 1 0.00
0x4026b0 1 0.00
0x4026b8 1 0.00
0x4026c0 1 0.00
0x4026c8 1 0.00
0x4026d0 1 0.00
0x4026d8 1 0.00
0x4026e0 1 0.00
0x4026e8 1 0.00
0x4026f0 1 0.00
0x4026f8 1 0.00
0x402700 1 0.00
0x402708 1 0.00
0x402710 1 0.00
0x402718 1 0.00
0x402720 1 0.00
0x402728 1 0.00
0x402730 1 0.00
0x402738 1 0.00
0x402740 1 0.00
0x402748 1 0.00
0x402750 1 0.00
0x402758 1 0.00
0x402810 1 0.00
0x402818 1 0.00
0x402820 1 0.00
0x402828 1 0.00
0x402830 1 0.00
0x402980 1 0.00
0x402988 1 0.00
0x402c98 1 0.00
0x402ca0 1 0.00
0x402ca8 1 0.00
0x402cb0 1 0.00
0x402cb8 1 0.00
0x402cc0 1 0.00
0x402cc8 1 0.00
0x402cd0 1 0.00
0x402cd8 1 0.00
0x402ce0 1 0.00
0x402ce8 1 0.00
0x402cf0 1 0.00
0x402d18 1 0.00
0x402d20 1 0.00
0x402d50 1 0.00
0x402d58 1 0.00
0x402d60 1 0.00
0x402d68 1 0.00
0x403198 2 0.00
0x4031a0 2 0.00
0x4031a8 2 0.00
0x4031b0 2 0.00
0x4031b8 2 0.00
0x4031c0 2 0.00
0x4031c8 2 0.00
0x4031d0 2 0.00
0x4031d8 2 0.00
0x4031e0 2 0.00
0x4031e8 2 0.00
0x4031f0 2 0.00
0x4031f8 2 0.00
0x403200 2 0.00
0x403208 2 0.00
0x403210 2 0.00
0x403218 2 0.00
0x403220 2 0.00
0x403228 2 0.00
0x403230 2 0.00
0x403238 2 0.00
0x403240 2 0.00
0x403248 2 0.00
0x403250 2 0.00
0x403258 2 0.00
0x403260 2 0.00
0x403268 2 0.00
0x403270 2 0.00
0x403428 2 0.00
0x403430 2 0.00
0x403438 1 0.00
0x403440 1 0.00
0x403448 1 0.00
0x403450 1 0.00
0x403458 1 0.00
0x403460 1 0.00
0x403468 1 0.00
0x4034d0 2 0.00
0x4034d8 2 0.00
0x4034e0 2 0.00
0x4034e8 2 0.00
0x403520 2 0.00
0x403528 2 0.00
0x403530 2 0.00
0x403538 2 0.00
0x403540 2 0.00
0x403548 2 0.00
0x403550 2 0.00
0x403558 2 0.00
0x403560 2 0.00
0x403568 2 0.00
0x403570 2 0.00
0x403870 2 0.00
0x403878 2 0.00
0x403880 2 0.00
0x403888 2 0.00
0x403890 2 0.00
0x403898 2 0.00
0x4038a0 2 0.00
0x4038a8 2 0.00
0x4038b0 2 0.00
0x4038c8 2 0.00
0x4038d0 2 0.00
0x4038d8 2 0.00
0x4038e0 2 0.00
0x4038e8 2 0.00
0x4038f0 2 0.00
0x4038f8 2 0.00
0x403900 2 0.00
0x403908 2 0.00
0x403910 2 0.00
0x403918 2 0.00
0x403db0 2 0.00
0x403db8 2 0.00
0x403dc0 2 0.00
0x403dc8 2 0.00
0x403dd0 2 0.00
0x403dd8 2 0.00
0x403de0 2 0.00
0x403de8 2 0.00
0x403df0 2 0.00
0x403df8 2 0.00
0x403e00 2 0.00
0x403e08 2 0.00
0x403e10 2 0.00
0x403e18 2 0.00
0x403e20 2 0.00
0x403e38 2 0.00
0x403e40 2 0.00
0x403e48 2 0.00
0x403e50 2 0.00
0x403e58 2 0.00
0x403e60 2 0.00
0x403e68 2 0.00
0x403e90 2 0.00
0x403e98 2 0.00
0x403ea0 2 0.00
0x403ea8 2 0.00
0x403eb0 2 0.00
0x403ee8 2 0.00
0x403ef0 2 0.00
0x403ef8 2 0.00
0x403f00 2 0.00
0x403f08 2 0.00
0x403f10 2 0.00
0x403f18 2 0.00
0x403f20 2 0.00
0x403f28 2 0.00
0x403f30 2 0.00
0x403f38 2 0.00
0x403f40 2 0.00
0x403f48 2 0.00
0x403f50 2 0.00
0x403f58 2 0.00
0x403f60 2 0.00
0x403f68 2 0.00
0x403f70 2 0.00
0x403f78 2 0.00
0x403f80 2 0.00
0x403f88 2 0.00
0x403f90 2 0.00
0x403f98 2 0.00
0x403fa0 2 0.00
0x403fa8 2 0.00
0x403fb0 2 0.00
0x403fb8 2 0.00
0x403fc0 2 0.00
0x403fc8 2 0.00
0x403fd0 2 0.00
0x403fd8 1 0.00
0x403fe0 1 0.00
0x403ff8 1 0.00
0x404000 1 0.00
0x404008 1 0.00
0x404010 1 0.00
0x404018 1 0.00
0x404020 1 0.00
0x404028 1 0.00
0x404060 1 0.00
0x404068 1 0.00
0x404070 1 0.00
0x404098 2 0.00
0x4040a0 2 0.00
0x4040a8 2 0.00
0x4040b0 2 0.00
0x4040b8 2 0.00
0x4040c0 2 0.00
0x4040c8 2 0.00
0x4040d0 2 0.00
0x4040d8 2 0.00
0x404108 2 0.00
0x4041d0 2 0.00
0x4041d8 2 0.00
0x4041e0 2 0.00
0x404208 2 0.00
0x404210 2 0.00
0x404220 2 0.00
0x404228 2 0.00
0x404230 2 0.00
0x404238 2 0.00
0x404240 2 0.00
0x404248 2 0.00
0x404278 2 0.00
0x404280 2 0.00
0x404288 2 0.00
0x404290 2 0.00
0x4042a8 2 0.00
0x4042b0 2 0.00
0x4042b8 2 0.00
0x4042c0 2 0.00
0x4042c8 2 0.00
0x4042d0 2 0.00
0x4042d8 2 0.00
0x4042e0 2 0.00
0x404878 3 0.00
0x404880 3 0.00
0x404888 3 0.00
0x404890 3 0.00
0x404898 3 0.00
0x4048a0 3 0.00
0x4048a8 3 0.00
0x4048b0 3 0.00
0x4048b8 3 0.00
0x4048c0 3 0.00
0x4048c8 3 0.00
0x4048d0 3 0.00
0x4048d8 3 0.00
0x4048e0 3 0.00
0x4048e8 3 0.00
0x404a90 2 0.00
0x404a98 2 0.00
0x404aa0 2 0.00
0x404aa8 2 0.00
0x404ab0 2 0.00
0x404ab8 2 0.00
0x404f30 3 0.00
0x404f38 3 0.00
0x404f40 3 0.00
0x404f48 3 0.00
0x404f60 3 0.00
0x404f68 3 0.00
0x404f70 3 0.00
0x404f78 3 0.00
0x404f80 3 0.00
0x404f88 3 0.00
0x404f90 3 0.00
0x404f98 3 0.00
0x404fa0 3 0.00
0x404fa8 3 0.00
0x404fb0 3 0.00
0x405810 2 0.00
0x405818 2 0.00
0x405820 2 0.00
0x405828 2 0.00
0x405830 2 0.00
0x405838 2 0.00
0x405840 2 0.00
0x405848 2 0.00
0x405850 2 0.00
0x405858 2 0.00
0x405860 2 0.00
0x405868 1 0.00
0x405870 1 0.00
0x405878 1 0.00
0x405880 1 0.00
0x405888 1 0.00
0x405890 1 0.00
0x405898 1 0.00
0x4058a0 1 0.00
0x4058c8 1 0.00
0x4058d0 1 0.00
0x405910 1 0.00
0x405918 1 0.00
0x405920 2 0.00
0x405928 2 0.00
0x405930 2 0.00
0x405938 2 0.00
0x405940 2 0.00
0x405a20 2 0.00
0x405a28 2 0.00
0x405a30 2 0.00
0x405a38 2 0.00
0x405a40 2 0.00
0x405ad0 3 0.00
0x405ad8 3 0.00
0x405ae0 3 0.00
0x405af0 3 0.00
0x405af8 3 0.00
0x405b00 3 0.00
0x405b08 3 0.00
0x405b10 3 0.00
0x405b18 3 0.00
0x405b40 1 0.00
0x405b48 1 0.00
0x405b50 1 0.00
0x405b58 1 0.00
0x405b60 1 0.00
sim_num_insn_by_pc.end_dist

ld_text_base             0x00400000 # target_name text (code) segment base
ld_text_size                  23712 # target_name text (code) size in bytes
ld_data_base             0x10000000 # target_name initialized data segment base
ld_data_size                  17104 # target_name init'ed `.data' and uninit'ed `.bss' size in bytes
ld_stack_base            0x7fffc000 # target_name stack segment base (highest address in stack)
ld_stack_size                 16384 # target_name initial stack size
ld_prog_entry            0x00400140 # target_name entry point (initial PC)
ld_environ_base          0x7fff8000 # target_name environment base address address
ld_target_big_endian              0 # target executable endian-ness, non-zero if big endian
mem.page_count                   16 # total number of pages allocated
mem.page_mem                    64k # total size of memory pages allocated
mem.ptab_misses                  16 # total first level page table misses
mem.ptab_accesses            738352 # total page table accesses
mem.ptab_miss_rate           0.0000 # first level page table miss rate

+--------------------------------------------------------------+
| effective code range:         [0, fffffff8]                  |
| effective bpred count:        0                              |
| effective sim cycles:         0                              |
| effective bpred misses:       0                              |
| effective icache misses:      0                              |
+--------------------------------------------------------------+

