sim-profile: SimpleScalar/PISA Tool Set version 3.0 of August, 2003.
Copyright (c) 1994-2003 by Todd M. Austin, Ph.D. and SimpleScalar, LLC.
All Rights Reserved. This version of SimpleScalar is licensed for academic
non-commercial use.  No portion of this work may be used by any commercial
entity, or for any commercial purpose, without the prior written permission
of SimpleScalar, LLC (info@simplescalar.com).

sim: command line: /home/sudiptac/sudiptac/Work/simplesim-3.0/sim-profile -pcstat sim_num_insn ap_gps_nav1 

sim: simulation started @ Fri May 11 16:36:55 2012, options follow:

sim-profile: This simulator implements a functional simulator with
profiling support.  Run with the `-h' flag to see profiling options
available.

# -config                     # load configuration from a file
# -dumpconfig                 # dump configuration to a file
# -h                    false # print help message    
# -v                    false # verbose operation     
# -d                    false # enable debug message  
# -i                    false # start in Dlite debugger
-seed                       1 # random number generator seed (0 for timer seed)
# -q                    false # initialize and terminate immediately
# -chkpt               <null> # restore EIO trace execution from <fname>
# -redir:sim           <null> # redirect simulator output to file (non-interactive only)
# -redir:prog          <null> # redirect simulated target_name output to file
-nice                       0 # simulator scheduling priority
-max:inst                   0 # maximum number of inst's to execute
-all                    false # enable all profile options
-iclass                 false # enable instruction class profiling
-iprof                  false # enable instruction profiling
-brprof                 false # enable branch instruction profiling
-amprof                 false # enable address mode profiling
-segprof                false # enable load/store address segment profiling
-tsymprof               false # enable text symbol profiling
-taddrprof              false # enable text address profiling
-dsymprof               false # enable data symbol profiling
-internal               false # include compiler-internal symbols during symbol profiling
# -pcstat        sim_num_insn # profile stat(s) against text addr's (mult uses ok)

sim: ** starting functional simulation **

sim: ** simulation statistics **
sim_num_insn                   5971 # total number of instructions executed
sim_num_refs                   3598 # total number of loads and stores executed
sim_elapsed_time                  1 # total simulation time in seconds
sim_inst_rate             5971.0000 # simulation speed (in insts/sec)

sim_num_insn_by_pc     # total number of instructions executed (by text address)
sim_num_insn_by_pc.count = 796
sim_num_insn_by_pc.total = 5970
sim_num_insn_by_pc.imin = 0x400140
sim_num_insn_by_pc.imax = 0x405830
sim_num_insn_by_pc.average =   7.5000
sim_num_insn_by_pc.std_dev =  47.3649
sim_num_insn_by_pc.overflows = 0
# pdf == prob dist fn, cdf == cumulative dist fn
#          index      count    pdf 
sim_num_insn_by_pc.start_dist
0x400140 1 0.02
0x400148 1 0.02
0x400150 1 0.02
0x400158 1 0.02
0x400160 1 0.02
0x400168 1 0.02
0x400170 1 0.02
0x400178 1 0.02
0x400180 1 0.02
0x400188 1 0.02
0x400190 1 0.02
0x400198 1 0.02
0x4001a0 1 0.02
0x4001a8 1 0.02
0x4001b0 1 0.02
0x4001b8 1 0.02
0x4001c0 1 0.02
0x4001c8 1 0.02
0x4001d0 1 0.02
0x4001d8 1 0.02
0x4001e0 1 0.02
0x4001f0 1 0.02
0x4001f8 1 0.02
0x400200 1 0.02
0x400208 1 0.02
0x400210 1 0.02
0x400218 1 0.02
0x400220 1 0.02
0x400228 1 0.02
0x400230 1 0.02
0x400238 1 0.02
0x400240 1 0.02
0x400248 1 0.02
0x400250 1 0.02
0x400258 1 0.02
0x400260 1 0.02
0x400268 1 0.02
0x400270 1 0.02
0x400278 1 0.02
0x400280 1 0.02
0x400460 1 0.02
0x400470 1 0.02
0x400478 1 0.02
0x400480 1 0.02
0x400488 1 0.02
0x400490 1 0.02
0x400498 1 0.02
0x4004a0 1 0.02
0x4004a8 1 0.02
0x4004b0 1 0.02
0x4004b8 1 0.02
0x4004c0 1 0.02
0x4004c8 1 0.02
0x4004d0 1 0.02
0x4004d8 1 0.02
0x4004e0 1 0.02
0x4004e8 1 0.02
0x4004f0 1 0.02
0x4004f8 1 0.02
0x400500 1 0.02
0x400508 1 0.02
0x400510 1 0.02
0x400518 1 0.02
0x400520 1 0.02
0x4005d0 1 0.02
0x4005d8 1 0.02
0x4005e0 1 0.02
0x4005e8 1 0.02
0x4005f0 1 0.02
0x400640 1 0.02
0x400648 1 0.02
0x400650 1 0.02
0x400658 1 0.02
0x400660 1 0.02
0x400668 1 0.02
0x400670 1 0.02
0x400678 1 0.02
0x400680 1 0.02
0x400688 1 0.02
0x400690 1 0.02
0x400698 1 0.02
0x4006a8 1 0.02
0x4006b0 1 0.02
0x4006b8 1 0.02
0x4006c0 1 0.02
0x4006c8 1 0.02
0x4008e0 1 0.02
0x4008e8 1 0.02
0x4008f0 1 0.02
0x4008f8 1 0.02
0x400900 1 0.02
0x400908 1 0.02
0x400910 1 0.02
0x400930 1 0.02
0x400950 1 0.02
0x400958 1 0.02
0x400960 1 0.02
0x400968 1 0.02
0x400970 1 0.02
0x400978 1 0.02
0x400998 1 0.02
0x4009a0 1 0.02
0x4009a8 1 0.02
0x4009b0 1 0.02
0x4009d0 1 0.02
0x4009d8 1 0.02
0x4009e0 1 0.02
0x4009e8 1 0.02
0x4009f0 1 0.02
0x4009f8 1 0.02
0x400a00 1 0.02
0x400a08 1 0.02
0x400a10 1 0.02
0x400a18 1 0.02
0x400a20 1 0.02
0x400a28 1 0.02
0x400a30 1 0.02
0x400a38 1 0.02
0x400a40 1 0.02
0x400a48 1 0.02
0x400a50 1 0.02
0x400a58 1 0.02
0x400a60 1 0.02
0x400a68 1 0.02
0x400a70 1 0.02
0x400a78 1 0.02
0x400a80 1 0.02
0x400a88 1 0.02
0x400a98 1 0.02
0x400aa0 1 0.02
0x400aa8 1 0.02
0x400ab0 1 0.02
0x400ab8 1 0.02
0x400ac0 1 0.02
0x400ac8 1 0.02
0x400ad0 1 0.02
0x400ad8 1 0.02
0x400ae0 1 0.02
0x400ae8 1 0.02
0x400af0 1 0.02
0x400af8 1 0.02
0x400b00 1 0.02
0x400b08 1 0.02
0x400b10 1 0.02
0x400b18 1 0.02
0x400b20 1 0.02
0x400b28 1 0.02
0x400b30 1 0.02
0x400b38 1 0.02
0x400b40 1 0.02
0x400b48 1 0.02
0x400b50 1 0.02
0x400b58 1 0.02
0x400b68 1 0.02
0x400b70 1 0.02
0x400b78 1 0.02
0x400b80 1 0.02
0x400b88 1 0.02
0x400b90 1 0.02
0x400b98 1 0.02
0x400ba0 1 0.02
0x400ba8 1 0.02
0x400bb0 1 0.02
0x400bb8 1 0.02
0x400bc0 1 0.02
0x400bc8 1 0.02
0x400bd0 1 0.02
0x400bd8 1 0.02
0x400be0 1 0.02
0x400be8 1 0.02
0x400c18 1 0.02
0x400c20 1 0.02
0x400c30 1 0.02
0x400c38 1 0.02
0x400c50 1 0.02
0x400c58 1 0.02
0x400c60 1 0.02
0x400c68 1 0.02
0x400c78 1 0.02
0x400c80 1 0.02
0x400c88 1 0.02
0x400c90 1 0.02
0x400c98 1 0.02
0x400f20 1 0.02
0x400f28 1 0.02
0x400f30 1 0.02
0x400f38 1 0.02
0x400f48 1 0.02
0x400f50 1 0.02
0x400f58 1 0.02
0x400f60 1 0.02
0x400f68 1 0.02
0x400f70 1 0.02
0x400f78 1 0.02
0x400f80 1 0.02
0x400f88 1 0.02
0x400f90 1 0.02
0x400f98 1 0.02
0x400fa0 1 0.02
0x400fa8 1 0.02
0x400fb0 1 0.02
0x400fb8 1 0.02
0x400fc0 1 0.02
0x400fc8 1 0.02
0x400fd0 1 0.02
0x400fd8 1 0.02
0x400fe0 1 0.02
0x400fe8 1 0.02
0x400ff0 1 0.02
0x401008 1 0.02
0x401010 1 0.02
0x401018 1 0.02
0x401020 1 0.02
0x401028 1 0.02
0x401030 1 0.02
0x401040 1 0.02
0x401048 1 0.02
0x4013e0 1 0.02
0x4013e8 1 0.02
0x4013f0 1 0.02
0x4013f8 1 0.02
0x401400 1 0.02
0x401408 1 0.02
0x401410 1 0.02
0x401418 1 0.02
0x401420 1 0.02
0x401428 1 0.02
0x401430 1 0.02
0x401438 1 0.02
0x401440 1 0.02
0x401448 1 0.02
0x401450 1 0.02
0x401458 1 0.02
0x401460 1 0.02
0x401468 1 0.02
0x401470 1 0.02
0x401478 1 0.02
0x401480 1 0.02
0x401488 1 0.02
0x401490 1 0.02
0x401498 1 0.02
0x4014a0 1 0.02
0x4014a8 1 0.02
0x401590 1 0.02
0x401598 1 0.02
0x4015a0 1 0.02
0x4015a8 1 0.02
0x4015b0 1 0.02
0x4015b8 1 0.02
0x4015c0 1 0.02
0x4015d0 1 0.02
0x4015d8 1 0.02
0x4015e0 1 0.02
0x4015e8 1 0.02
0x4015f0 1 0.02
0x4015f8 1 0.02
0x401600 1 0.02
0x401608 1 0.02
0x401610 1 0.02
0x401618 1 0.02
0x401620 1 0.02
0x401628 1 0.02
0x401630 1 0.02
0x401638 1 0.02
0x401640 1 0.02
0x401648 1 0.02
0x401650 1 0.02
0x4018e8 1 0.02
0x4018f0 1 0.02
0x4018f8 1 0.02
0x401900 1 0.02
0x401908 1 0.02
0x401910 1 0.02
0x401918 1 0.02
0x401920 1 0.02
0x401930 4 0.07
0x401938 4 0.07
0x401940 4 0.07
0x401948 4 0.07
0x401950 4 0.07
0x401958 4 0.07
0x401960 4 0.07
0x401968 1 0.02
0x401970 1 0.02
0x401978 1 0.02
0x401980 1 0.02
0x401988 1 0.02
0x401990 1 0.02
0x401998 3 0.05
0x4019a0 3 0.05
0x4019b8 3 0.05
0x4019c0 3 0.05
0x4019c8 3 0.05
0x4019d0 3 0.05
0x4019d8 3 0.05
0x4019e0 3 0.05
0x4019e8 1 0.02
0x4019f0 1 0.02
0x4019f8 3 0.05
0x401a00 3 0.05
0x401a08 3 0.05
0x401a10 3 0.05
0x401a28 3 0.05
0x401a30 3 0.05
0x401a38 3 0.05
0x401a40 3 0.05
0x401a68 3 0.05
0x401a70 3 0.05
0x401a78 3 0.05
0x401a80 2 0.03
0x401a88 2 0.03
0x401a90 2 0.03
0x401a98 2 0.03
0x401aa0 2 0.03
0x401ab8 3 0.05
0x401ac0 3 0.05
0x401ac8 1 0.02
0x401ad0 1 0.02
0x401ad8 1 0.02
0x401ae0 1 0.02
0x401ae8 3 0.05
0x401af0 3 0.05
0x401af8 2 0.03
0x401b00 2 0.03
0x401b08 2 0.03
0x401b10 2 0.03
0x401b18 1 0.02
0x401b20 1 0.02
0x401b28 1 0.02
0x401b30 1 0.02
0x401b38 1 0.02
0x401b58 1 0.02
0x401b60 3 0.05
0x401b68 3 0.05
0x401b70 3 0.05
0x401b78 4 0.07
0x401b80 4 0.07
0x401b88 4 0.07
0x401b90 4 0.07
0x401b98 4 0.07
0x401ba0 4 0.07
0x401bd0 1 0.02
0x401bd8 1 0.02
0x401be0 1 0.02
0x401be8 1 0.02
0x401c20 1 0.02
0x401c28 1 0.02
0x401c30 1 0.02
0x401c38 1 0.02
0x401c40 1 0.02
0x401c48 1 0.02
0x401c50 3 0.05
0x401c58 3 0.05
0x401c60 3 0.05
0x401c68 3 0.05
0x401c70 3 0.05
0x401c78 3 0.05
0x401c80 3 0.05
0x401c88 3 0.05
0x401c90 2 0.03
0x401c98 2 0.03
0x401ca0 2 0.03
0x401ca8 2 0.03
0x401cb0 2 0.03
0x401cb8 2 0.03
0x401cc0 1 0.02
0x401cc8 1 0.02
0x401cd0 1 0.02
0x401cd8 1 0.02
0x401ce0 1 0.02
0x401ce8 1 0.02
0x401cf0 1 0.02
0x401cf8 1 0.02
0x401d00 1 0.02
0x401d08 1 0.02
0x401d10 1 0.02
0x401d18 1 0.02
0x401d20 1 0.02
0x401d28 1 0.02
0x401d30 1 0.02
0x401d38 1 0.02
0x401d40 1 0.02
0x401d58 1 0.02
0x401d60 1 0.02
0x401d68 1 0.02
0x401d70 3 0.05
0x401d78 3 0.05
0x401d80 3 0.05
0x401d88 3 0.05
0x401d90 3 0.05
0x401d98 3 0.05
0x401da0 3 0.05
0x401da8 3 0.05
0x401db0 3 0.05
0x401db8 3 0.05
0x401dc0 4 0.07
0x401dc8 4 0.07
0x401dd0 4 0.07
0x401dd8 4 0.07
0x401de0 4 0.07
0x401de8 4 0.07
0x401df0 4 0.07
0x401df8 4 0.07
0x401e00 4 0.07
0x401e08 4 0.07
0x401e38 4 0.07
0x401e40 4 0.07
0x401e48 4 0.07
0x401e50 390 6.53
0x401e58 390 6.53
0x401e60 390 6.53
0x401e68 390 6.53
0x401e70 390 6.53
0x401e78 390 6.53
0x401e80 390 6.53
0x401e88 390 6.53
0x401e90 390 6.53
0x401e98 390 6.53
0x401ea0 390 6.53
0x401ea8 390 6.53
0x401eb0 4 0.07
0x401eb8 4 0.07
0x401ec0 4 0.07
0x401ec8 12 0.20
0x401ed0 12 0.20
0x401ed8 12 0.20
0x401ee0 12 0.20
0x401ee8 4 0.07
0x401ef0 4 0.07
0x401f18 4 0.07
0x401f20 4 0.07
0x4020f0 1 0.02
0x4020f8 1 0.02
0x402100 1 0.02
0x402108 1 0.02
0x402110 1 0.02
0x402118 1 0.02
0x402120 1 0.02
0x402128 1 0.02
0x402130 1 0.02
0x402138 1 0.02
0x402148 1 0.02
0x402150 1 0.02
0x402158 1 0.02
0x402160 1 0.02
0x402168 1 0.02
0x402170 1 0.02
0x402178 1 0.02
0x402180 1 0.02
0x402188 1 0.02
0x402190 1 0.02
0x402198 1 0.02
0x4021a0 1 0.02
0x4021a8 1 0.02
0x4021b0 1 0.02
0x4021b8 1 0.02
0x4021c0 1 0.02
0x4021c8 1 0.02
0x4021d0 1 0.02
0x4021d8 1 0.02
0x4021e0 1 0.02
0x4021e8 1 0.02
0x4021f0 1 0.02
0x4021f8 1 0.02
0x402200 1 0.02
0x402208 1 0.02
0x402258 1 0.02
0x402260 1 0.02
0x402268 1 0.02
0x402270 1 0.02
0x402278 1 0.02
0x402280 1 0.02
0x402288 1 0.02
0x4022a0 1 0.02
0x4022a8 1 0.02
0x4022b0 1 0.02
0x4022b8 1 0.02
0x4022c0 1 0.02
0x4022c8 1 0.02
0x4022d0 1 0.02
0x4022d8 1 0.02
0x4022e0 1 0.02
0x4022e8 1 0.02
0x4022f0 1 0.02
0x4022f8 1 0.02
0x402300 1 0.02
0x402350 1 0.02
0x402358 1 0.02
0x402360 1 0.02
0x402368 1 0.02
0x402370 1 0.02
0x402378 1 0.02
0x402380 1 0.02
0x402388 1 0.02
0x402390 1 0.02
0x402398 1 0.02
0x4023a0 1 0.02
0x4023a8 1 0.02
0x4023b0 1 0.02
0x4023b8 1 0.02
0x4023c0 1 0.02
0x4023c8 1 0.02
0x4023d0 1 0.02
0x4023d8 1 0.02
0x4023e0 1 0.02
0x4023e8 1 0.02
0x4023f0 1 0.02
0x4023f8 1 0.02
0x402400 1 0.02
0x402408 1 0.02
0x402410 1 0.02
0x402418 1 0.02
0x402420 1 0.02
0x402428 1 0.02
0x4024e0 1 0.02
0x4024e8 1 0.02
0x4024f0 1 0.02
0x4024f8 1 0.02
0x402500 1 0.02
0x402650 1 0.02
0x402658 1 0.02
0x402968 1 0.02
0x402970 1 0.02
0x402978 1 0.02
0x402980 1 0.02
0x402988 1 0.02
0x402990 1 0.02
0x402998 1 0.02
0x4029a0 1 0.02
0x4029a8 1 0.02
0x4029b0 1 0.02
0x4029b8 1 0.02
0x4029c0 1 0.02
0x4029e8 1 0.02
0x4029f0 1 0.02
0x402a20 1 0.02
0x402a28 1 0.02
0x402a30 1 0.02
0x402a38 1 0.02
0x402e68 2 0.03
0x402e70 2 0.03
0x402e78 2 0.03
0x402e80 2 0.03
0x402e88 2 0.03
0x402e90 2 0.03
0x402e98 2 0.03
0x402ea0 2 0.03
0x402ea8 2 0.03
0x402eb0 2 0.03
0x402eb8 2 0.03
0x402ec0 2 0.03
0x402ec8 2 0.03
0x402ed0 2 0.03
0x402ed8 2 0.03
0x402ee0 2 0.03
0x402ee8 2 0.03
0x402ef0 2 0.03
0x402ef8 2 0.03
0x402f00 2 0.03
0x402f08 2 0.03
0x402f10 2 0.03
0x402f18 2 0.03
0x402f20 2 0.03
0x402f28 2 0.03
0x402f30 2 0.03
0x402f38 2 0.03
0x402f40 2 0.03
0x4030f8 2 0.03
0x403100 2 0.03
0x403108 1 0.02
0x403110 1 0.02
0x403118 1 0.02
0x403120 1 0.02
0x403128 1 0.02
0x403130 1 0.02
0x403138 1 0.02
0x4031a0 2 0.03
0x4031a8 2 0.03
0x4031b0 2 0.03
0x4031b8 2 0.03
0x4031f0 2 0.03
0x4031f8 2 0.03
0x403200 2 0.03
0x403208 2 0.03
0x403210 2 0.03
0x403218 2 0.03
0x403220 2 0.03
0x403228 2 0.03
0x403230 2 0.03
0x403238 2 0.03
0x403240 2 0.03
0x403540 2 0.03
0x403548 2 0.03
0x403550 2 0.03
0x403558 2 0.03
0x403560 2 0.03
0x403568 2 0.03
0x403570 2 0.03
0x403578 2 0.03
0x403580 2 0.03
0x403598 2 0.03
0x4035a0 2 0.03
0x4035a8 2 0.03
0x4035b0 2 0.03
0x4035b8 2 0.03
0x4035c0 2 0.03
0x4035c8 2 0.03
0x4035d0 2 0.03
0x4035d8 2 0.03
0x4035e0 2 0.03
0x4035e8 2 0.03
0x403a80 2 0.03
0x403a88 2 0.03
0x403a90 2 0.03
0x403a98 2 0.03
0x403aa0 2 0.03
0x403aa8 2 0.03
0x403ab0 2 0.03
0x403ab8 2 0.03
0x403ac0 2 0.03
0x403ac8 2 0.03
0x403ad0 2 0.03
0x403ad8 2 0.03
0x403ae0 2 0.03
0x403ae8 2 0.03
0x403af0 2 0.03
0x403b08 2 0.03
0x403b10 2 0.03
0x403b18 2 0.03
0x403b20 2 0.03
0x403b28 2 0.03
0x403b30 2 0.03
0x403b38 2 0.03
0x403b60 2 0.03
0x403b68 2 0.03
0x403b70 2 0.03
0x403b78 2 0.03
0x403b80 2 0.03
0x403bb8 2 0.03
0x403bc0 2 0.03
0x403bc8 2 0.03
0x403bd0 2 0.03
0x403bd8 2 0.03
0x403be0 2 0.03
0x403be8 2 0.03
0x403bf0 2 0.03
0x403bf8 2 0.03
0x403c00 2 0.03
0x403c08 2 0.03
0x403c10 2 0.03
0x403c18 2 0.03
0x403c20 2 0.03
0x403c28 2 0.03
0x403c30 2 0.03
0x403c38 2 0.03
0x403c40 2 0.03
0x403c48 2 0.03
0x403c50 2 0.03
0x403c58 2 0.03
0x403c60 2 0.03
0x403c68 2 0.03
0x403c70 2 0.03
0x403c78 2 0.03
0x403c80 2 0.03
0x403c88 2 0.03
0x403c90 2 0.03
0x403c98 2 0.03
0x403ca0 2 0.03
0x403ca8 1 0.02
0x403cb0 1 0.02
0x403cc8 1 0.02
0x403cd0 1 0.02
0x403cd8 1 0.02
0x403ce0 1 0.02
0x403ce8 1 0.02
0x403cf0 1 0.02
0x403cf8 1 0.02
0x403d30 1 0.02
0x403d38 1 0.02
0x403d40 1 0.02
0x403d68 2 0.03
0x403d70 2 0.03
0x403d78 2 0.03
0x403d80 2 0.03
0x403d88 2 0.03
0x403d90 2 0.03
0x403d98 2 0.03
0x403da0 2 0.03
0x403da8 2 0.03
0x403dd8 2 0.03
0x403ea0 2 0.03
0x403ea8 2 0.03
0x403eb0 2 0.03
0x403ed8 2 0.03
0x403ee0 2 0.03
0x403ef0 2 0.03
0x403ef8 2 0.03
0x403f00 2 0.03
0x403f08 2 0.03
0x403f10 2 0.03
0x403f18 2 0.03
0x403f48 2 0.03
0x403f50 2 0.03
0x403f58 2 0.03
0x403f60 2 0.03
0x403f78 2 0.03
0x403f80 2 0.03
0x403f88 2 0.03
0x403f90 2 0.03
0x403f98 2 0.03
0x403fa0 2 0.03
0x403fa8 2 0.03
0x403fb0 2 0.03
0x404548 3 0.05
0x404550 3 0.05
0x404558 3 0.05
0x404560 3 0.05
0x404568 3 0.05
0x404570 3 0.05
0x404578 3 0.05
0x404580 3 0.05
0x404588 3 0.05
0x404590 3 0.05
0x404598 3 0.05
0x4045a0 3 0.05
0x4045a8 3 0.05
0x4045b0 3 0.05
0x4045b8 3 0.05
0x404760 2 0.03
0x404768 2 0.03
0x404770 2 0.03
0x404778 2 0.03
0x404780 2 0.03
0x404788 2 0.03
0x404c00 3 0.05
0x404c08 3 0.05
0x404c10 3 0.05
0x404c18 3 0.05
0x404c30 3 0.05
0x404c38 3 0.05
0x404c40 3 0.05
0x404c48 3 0.05
0x404c50 3 0.05
0x404c58 3 0.05
0x404c60 3 0.05
0x404c68 3 0.05
0x404c70 3 0.05
0x404c78 3 0.05
0x404c80 3 0.05
0x4054e0 2 0.03
0x4054e8 2 0.03
0x4054f0 2 0.03
0x4054f8 2 0.03
0x405500 2 0.03
0x405508 2 0.03
0x405510 2 0.03
0x405518 2 0.03
0x405520 2 0.03
0x405528 2 0.03
0x405530 2 0.03
0x405538 1 0.02
0x405540 1 0.02
0x405548 1 0.02
0x405550 1 0.02
0x405558 1 0.02
0x405560 1 0.02
0x405568 1 0.02
0x405570 1 0.02
0x405598 1 0.02
0x4055a0 1 0.02
0x4055e0 1 0.02
0x4055e8 1 0.02
0x4055f0 2 0.03
0x4055f8 2 0.03
0x405600 2 0.03
0x405608 2 0.03
0x405610 2 0.03
0x4056f0 2 0.03
0x4056f8 2 0.03
0x405700 2 0.03
0x405708 2 0.03
0x405710 2 0.03
0x4057a0 3 0.05
0x4057a8 3 0.05
0x4057b0 3 0.05
0x4057c0 3 0.05
0x4057c8 3 0.05
0x4057d0 3 0.05
0x4057d8 3 0.05
0x4057e0 3 0.05
0x4057e8 3 0.05
0x405810 1 0.02
0x405818 1 0.02
0x405820 1 0.02
0x405828 1 0.02
0x405830 1 0.02
sim_num_insn_by_pc.end_dist

ld_text_base             0x00400000 # target_name text (code) segment base
ld_text_size                  22896 # target_name text (code) size in bytes
ld_data_base             0x10000000 # target_name initialized data segment base
ld_data_size                   4096 # target_name init'ed `.data' and uninit'ed `.bss' size in bytes
ld_stack_base            0x7fffc000 # target_name stack segment base (highest address in stack)
ld_stack_size                 16384 # target_name initial stack size
ld_prog_entry            0x00400140 # target_name entry point (initial PC)
ld_environ_base          0x7fff8000 # target_name environment base address address
ld_target_big_endian              0 # target executable endian-ness, non-zero if big endian
mem.page_count                   12 # total number of pages allocated
mem.page_mem                    48k # total size of memory pages allocated
mem.ptab_misses                  12 # total first level page table misses
mem.ptab_accesses            176154 # total page table accesses
mem.ptab_miss_rate           0.0001 # first level page table miss rate

+--------------------------------------------------------------+
| effective code range:         [0, fffffff8]                  |
| effective bpred count:        0                              |
| effective sim cycles:         0                              |
| effective bpred misses:       0                              |
| effective icache misses:      0                              |
+--------------------------------------------------------------+

