sim-profile: SimpleScalar/PISA Tool Set version 3.0 of August, 2003.
Copyright (c) 1994-2003 by Todd M. Austin, Ph.D. and SimpleScalar, LLC.
All Rights Reserved. This version of SimpleScalar is licensed for academic
non-commercial use.  No portion of this work may be used by any commercial
entity, or for any commercial purpose, without the prior written permission
of SimpleScalar, LLC (info@simplescalar.com).

sim: command line: /home/sudiptac/sudiptac/Work/simplesim-3.0/sim-profile -pcstat sim_num_insn ludcmp 

sim: simulation started @ Thu Aug 18 14:28:50 2011, options follow:

sim-profile: This simulator implements a functional simulator with
profiling support.  Run with the `-h' flag to see profiling options
available.

# -config                     # load configuration from a file
# -dumpconfig                 # dump configuration to a file
# -h                    false # print help message    
# -v                    false # verbose operation     
# -d                    false # enable debug message  
# -i                    false # start in Dlite debugger
-seed                       1 # random number generator seed (0 for timer seed)
# -q                    false # initialize and terminate immediately
# -chkpt               <null> # restore EIO trace execution from <fname>
# -redir:sim           <null> # redirect simulator output to file (non-interactive only)
# -redir:prog          <null> # redirect simulated target_name output to file
-nice                       0 # simulator scheduling priority
-max:inst                   0 # maximum number of inst's to execute
-all                    false # enable all profile options
-iclass                 false # enable instruction class profiling
-iprof                  false # enable instruction profiling
-brprof                 false # enable branch instruction profiling
-amprof                 false # enable address mode profiling
-segprof                false # enable load/store address segment profiling
-tsymprof               false # enable text symbol profiling
-taddrprof              false # enable text address profiling
-dsymprof               false # enable data symbol profiling
-internal               false # include compiler-internal symbols during symbol profiling
# -pcstat        sim_num_insn # profile stat(s) against text addr's (mult uses ok)

sim: ** starting functional simulation **

sim: ** simulation statistics **
sim_num_insn                  10469 # total number of instructions executed
sim_num_refs                   4483 # total number of loads and stores executed
sim_elapsed_time                  1 # total simulation time in seconds
sim_inst_rate            10469.0000 # simulation speed (in insts/sec)

sim_num_insn_by_pc     # total number of instructions executed (by text address)
sim_num_insn_by_pc.count = 961
sim_num_insn_by_pc.total = 10468
sim_num_insn_by_pc.imin = 0x400140
sim_num_insn_by_pc.imax = 0x405bf0
sim_num_insn_by_pc.average =  10.8928
sim_num_insn_by_pc.std_dev =  47.1929
sim_num_insn_by_pc.overflows = 0
# pdf == prob dist fn, cdf == cumulative dist fn
#          index      count    pdf 
sim_num_insn_by_pc.start_dist
0x400140 1 0.01
0x400148 1 0.01
0x400150 1 0.01
0x400158 1 0.01
0x400160 1 0.01
0x400168 1 0.01
0x400170 1 0.01
0x400178 1 0.01
0x400180 1 0.01
0x400188 1 0.01
0x400190 1 0.01
0x400198 1 0.01
0x4001a0 1 0.01
0x4001a8 1 0.01
0x4001b0 1 0.01
0x4001b8 1 0.01
0x4001c0 1 0.01
0x4001c8 1 0.01
0x4001d0 1 0.01
0x4001d8 1 0.01
0x4001e0 1 0.01
0x400230 1 0.01
0x400238 1 0.01
0x400240 1 0.01
0x400248 1 0.01
0x400250 1 0.01
0x400258 1 0.01
0x400260 1 0.01
0x400268 1 0.01
0x400270 1 0.01
0x400278 1 0.01
0x400280 1 0.01
0x400288 6 0.06
0x400290 6 0.06
0x400298 6 0.06
0x4002a0 6 0.06
0x4002a8 6 0.06
0x4002b0 36 0.34
0x4002b8 36 0.34
0x4002c0 36 0.34
0x4002c8 36 0.34
0x4002d0 36 0.34
0x4002d8 36 0.34
0x4002e0 6 0.06
0x4002e8 6 0.06
0x4002f0 36 0.34
0x4002f8 36 0.34
0x400300 36 0.34
0x400308 36 0.34
0x400310 36 0.34
0x400318 36 0.34
0x400320 6 0.06
0x400328 6 0.06
0x400330 6 0.06
0x400338 6 0.06
0x400340 6 0.06
0x400348 6 0.06
0x400350 1 0.01
0x400358 1 0.01
0x400360 1 0.01
0x400368 1 0.01
0x400370 1 0.01
0x400378 1 0.01
0x400380 1 0.01
0x400388 1 0.01
0x400390 1 0.01
0x400398 1 0.01
0x4003a0 1 0.01
0x4003a8 1 0.01
0x4003b0 1 0.01
0x4003b8 1 0.01
0x4003c0 1 0.01
0x4003d8 1 0.01
0x4003e0 1 0.01
0x4003e8 1 0.01
0x4003f0 1 0.01
0x4003f8 1 0.01
0x400400 5 0.05
0x400408 5 0.05
0x400410 5 0.05
0x400418 5 0.05
0x400420 25 0.24
0x400428 25 0.24
0x400430 25 0.24
0x400438 25 0.24
0x400440 25 0.24
0x400448 125 1.19
0x400450 125 1.19
0x400458 125 1.19
0x400460 125 1.19
0x400468 125 1.19
0x400470 125 1.19
0x400478 125 1.19
0x400480 125 1.19
0x400488 125 1.19
0x400490 125 1.19
0x400498 25 0.24
0x4004a0 25 0.24
0x4004a8 25 0.24
0x4004b0 25 0.24
0x4004b8 25 0.24
0x4004c0 25 0.24
0x4004c8 25 0.24
0x4004d0 5 0.05
0x4004d8 5 0.05
0x4004e0 5 0.05
0x4004e8 5 0.05
0x4004f0 25 0.24
0x4004f8 25 0.24
0x400500 25 0.24
0x400508 25 0.24
0x400510 25 0.24
0x400518 150 1.43
0x400520 150 1.43
0x400528 150 1.43
0x400530 150 1.43
0x400538 150 1.43
0x400540 150 1.43
0x400548 150 1.43
0x400550 150 1.43
0x400558 150 1.43
0x400560 150 1.43
0x400568 25 0.24
0x400570 25 0.24
0x400578 25 0.24
0x400580 25 0.24
0x400588 25 0.24
0x400590 25 0.24
0x400598 5 0.05
0x4005a0 5 0.05
0x4005a8 5 0.05
0x4005b0 5 0.05
0x4005b8 5 0.05
0x4005c0 1 0.01
0x4005c8 1 0.01
0x4005d0 1 0.01
0x4005d8 1 0.01
0x4005e0 1 0.01
0x4005e8 1 0.01
0x4005f0 1 0.01
0x4005f8 1 0.01
0x400600 1 0.01
0x400608 5 0.05
0x400610 5 0.05
0x400618 5 0.05
0x400620 5 0.05
0x400628 25 0.24
0x400630 25 0.24
0x400638 25 0.24
0x400640 25 0.24
0x400648 25 0.24
0x400650 25 0.24
0x400658 25 0.24
0x400660 25 0.24
0x400668 25 0.24
0x400670 5 0.05
0x400678 5 0.05
0x400680 5 0.05
0x400688 5 0.05
0x400690 5 0.05
0x400698 5 0.05
0x4006a0 5 0.05
0x4006a8 1 0.01
0x4006b0 1 0.01
0x4006b8 1 0.01
0x4006c0 1 0.01
0x4006c8 1 0.01
0x4006d0 1 0.01
0x4006d8 1 0.01
0x4006e0 1 0.01
0x4006e8 1 0.01
0x4006f0 1 0.01
0x4006f8 1 0.01
0x400700 1 0.01
0x400708 1 0.01
0x400710 1 0.01
0x400718 1 0.01
0x400720 1 0.01
0x400728 1 0.01
0x400730 1 0.01
0x400738 1 0.01
0x400740 1 0.01
0x400748 1 0.01
0x400750 1 0.01
0x400758 1 0.01
0x400760 1 0.01
0x400768 5 0.05
0x400770 5 0.05
0x400778 5 0.05
0x400780 5 0.05
0x400788 25 0.24
0x400790 25 0.24
0x400798 25 0.24
0x4007a0 25 0.24
0x4007a8 25 0.24
0x4007b0 25 0.24
0x4007b8 25 0.24
0x4007c0 25 0.24
0x4007c8 25 0.24
0x4007d0 5 0.05
0x4007d8 5 0.05
0x4007e0 5 0.05
0x4007e8 5 0.05
0x4007f0 5 0.05
0x4007f8 5 0.05
0x400800 5 0.05
0x400808 5 0.05
0x400810 5 0.05
0x400818 1 0.01
0x400820 1 0.01
0x400828 1 0.01
0x400830 1 0.01
0x400838 1 0.01
0x400840 1 0.01
0x400848 1 0.01
0x400850 1 0.01
0x400858 1 0.01
0x400860 1 0.01
0x400868 1 0.01
0x400870 1 0.01
0x400878 1 0.01
0x400880 1 0.01
0x400888 1 0.01
0x400890 1 0.01
0x400898 1 0.01
0x4008a0 1 0.01
0x4008a8 1 0.01
0x4008b0 1 0.01
0x4008b8 1 0.01
0x4008c0 1 0.01
0x4008c8 1 0.01
0x4008d0 1 0.01
0x4008d8 1 0.01
0x4008e0 1 0.01
0x400990 1 0.01
0x400998 1 0.01
0x4009a0 1 0.01
0x4009a8 1 0.01
0x4009b0 1 0.01
0x400a00 1 0.01
0x400a08 1 0.01
0x400a10 1 0.01
0x400a18 1 0.01
0x400a20 1 0.01
0x400a28 1 0.01
0x400a30 1 0.01
0x400a38 1 0.01
0x400a40 1 0.01
0x400a48 1 0.01
0x400a50 1 0.01
0x400a58 1 0.01
0x400a68 1 0.01
0x400a70 1 0.01
0x400a78 1 0.01
0x400a80 1 0.01
0x400a88 1 0.01
0x400ca0 1 0.01
0x400ca8 1 0.01
0x400cb0 1 0.01
0x400cb8 1 0.01
0x400cc0 1 0.01
0x400cc8 1 0.01
0x400cd0 1 0.01
0x400cf0 1 0.01
0x400d10 1 0.01
0x400d18 1 0.01
0x400d20 1 0.01
0x400d28 1 0.01
0x400d30 1 0.01
0x400d38 1 0.01
0x400d58 1 0.01
0x400d60 1 0.01
0x400d68 1 0.01
0x400d70 1 0.01
0x400d90 1 0.01
0x400d98 1 0.01
0x400da0 1 0.01
0x400da8 1 0.01
0x400db0 1 0.01
0x400db8 1 0.01
0x400dc0 1 0.01
0x400dc8 1 0.01
0x400dd0 1 0.01
0x400dd8 1 0.01
0x400de0 1 0.01
0x400de8 1 0.01
0x400df0 1 0.01
0x400df8 1 0.01
0x400e00 1 0.01
0x400e08 1 0.01
0x400e10 1 0.01
0x400e18 1 0.01
0x400e20 1 0.01
0x400e28 1 0.01
0x400e30 1 0.01
0x400e38 1 0.01
0x400e40 1 0.01
0x400e48 1 0.01
0x400e58 1 0.01
0x400e60 1 0.01
0x400e68 1 0.01
0x400e70 1 0.01
0x400e78 1 0.01
0x400e80 1 0.01
0x400e88 1 0.01
0x400e90 1 0.01
0x400e98 1 0.01
0x400ea0 1 0.01
0x400ea8 1 0.01
0x400eb0 1 0.01
0x400eb8 1 0.01
0x400ec0 1 0.01
0x400ec8 1 0.01
0x400ed0 1 0.01
0x400ed8 1 0.01
0x400ee0 1 0.01
0x400ee8 1 0.01
0x400ef0 1 0.01
0x400ef8 1 0.01
0x400f00 1 0.01
0x400f08 1 0.01
0x400f10 1 0.01
0x400f18 1 0.01
0x400f28 1 0.01
0x400f30 1 0.01
0x400f38 1 0.01
0x400f40 1 0.01
0x400f48 1 0.01
0x400f50 1 0.01
0x400f58 1 0.01
0x400f60 1 0.01
0x400f68 1 0.01
0x400f70 1 0.01
0x400f78 1 0.01
0x400f80 1 0.01
0x400f88 1 0.01
0x400f90 1 0.01
0x400f98 1 0.01
0x400fa0 1 0.01
0x400fa8 1 0.01
0x400fd8 1 0.01
0x400fe0 1 0.01
0x400ff0 1 0.01
0x400ff8 1 0.01
0x401010 1 0.01
0x401018 1 0.01
0x401020 1 0.01
0x401028 1 0.01
0x401038 1 0.01
0x401040 1 0.01
0x401048 1 0.01
0x401050 1 0.01
0x401058 1 0.01
0x4012e0 1 0.01
0x4012e8 1 0.01
0x4012f0 1 0.01
0x4012f8 1 0.01
0x401308 1 0.01
0x401310 1 0.01
0x401318 1 0.01
0x401320 1 0.01
0x401328 1 0.01
0x401330 1 0.01
0x401338 1 0.01
0x401340 1 0.01
0x401348 1 0.01
0x401350 1 0.01
0x401358 1 0.01
0x401360 1 0.01
0x401368 1 0.01
0x401370 1 0.01
0x401378 1 0.01
0x401380 1 0.01
0x401388 1 0.01
0x401390 1 0.01
0x401398 1 0.01
0x4013a0 1 0.01
0x4013a8 1 0.01
0x4013b0 1 0.01
0x4013c8 1 0.01
0x4013d0 1 0.01
0x4013d8 1 0.01
0x4013e0 1 0.01
0x4013e8 1 0.01
0x4013f0 1 0.01
0x401400 1 0.01
0x401408 1 0.01
0x4017a0 1 0.01
0x4017a8 1 0.01
0x4017b0 1 0.01
0x4017b8 1 0.01
0x4017c0 1 0.01
0x4017c8 1 0.01
0x4017d0 1 0.01
0x4017d8 1 0.01
0x4017e0 1 0.01
0x4017e8 1 0.01
0x4017f0 1 0.01
0x4017f8 1 0.01
0x401800 1 0.01
0x401808 1 0.01
0x401810 1 0.01
0x401818 1 0.01
0x401820 1 0.01
0x401828 1 0.01
0x401830 1 0.01
0x401838 1 0.01
0x401840 1 0.01
0x401848 1 0.01
0x401850 1 0.01
0x401858 1 0.01
0x401860 1 0.01
0x401868 1 0.01
0x401950 1 0.01
0x401958 1 0.01
0x401960 1 0.01
0x401968 1 0.01
0x401970 1 0.01
0x401978 1 0.01
0x401980 1 0.01
0x401990 1 0.01
0x401998 1 0.01
0x4019a0 1 0.01
0x4019a8 1 0.01
0x4019b0 1 0.01
0x4019b8 1 0.01
0x4019c0 1 0.01
0x4019c8 1 0.01
0x4019d0 1 0.01
0x4019d8 1 0.01
0x4019e0 1 0.01
0x4019e8 1 0.01
0x4019f0 1 0.01
0x4019f8 1 0.01
0x401a00 1 0.01
0x401a08 1 0.01
0x401a10 1 0.01
0x401ca8 1 0.01
0x401cb0 1 0.01
0x401cb8 1 0.01
0x401cc0 1 0.01
0x401cc8 1 0.01
0x401cd0 1 0.01
0x401cd8 1 0.01
0x401ce0 1 0.01
0x401cf0 4 0.04
0x401cf8 4 0.04
0x401d00 4 0.04
0x401d08 4 0.04
0x401d10 4 0.04
0x401d18 4 0.04
0x401d20 4 0.04
0x401d28 1 0.01
0x401d30 1 0.01
0x401d38 1 0.01
0x401d40 1 0.01
0x401d48 1 0.01
0x401d50 1 0.01
0x401d58 3 0.03
0x401d60 3 0.03
0x401d78 3 0.03
0x401d80 3 0.03
0x401d88 3 0.03
0x401d90 3 0.03
0x401d98 3 0.03
0x401da0 3 0.03
0x401da8 1 0.01
0x401db0 1 0.01
0x401db8 3 0.03
0x401dc0 3 0.03
0x401dc8 3 0.03
0x401dd0 3 0.03
0x401de8 3 0.03
0x401df0 3 0.03
0x401df8 3 0.03
0x401e00 3 0.03
0x401e28 3 0.03
0x401e30 3 0.03
0x401e38 3 0.03
0x401e40 2 0.02
0x401e48 2 0.02
0x401e50 2 0.02
0x401e58 2 0.02
0x401e60 2 0.02
0x401e78 3 0.03
0x401e80 3 0.03
0x401e88 1 0.01
0x401e90 1 0.01
0x401e98 1 0.01
0x401ea0 1 0.01
0x401ea8 3 0.03
0x401eb0 3 0.03
0x401eb8 2 0.02
0x401ec0 2 0.02
0x401ec8 2 0.02
0x401ed0 2 0.02
0x401ed8 1 0.01
0x401ee0 1 0.01
0x401ee8 1 0.01
0x401ef0 1 0.01
0x401ef8 1 0.01
0x401f18 1 0.01
0x401f20 3 0.03
0x401f28 3 0.03
0x401f30 3 0.03
0x401f38 4 0.04
0x401f40 4 0.04
0x401f48 4 0.04
0x401f50 4 0.04
0x401f58 4 0.04
0x401f60 4 0.04
0x401f90 1 0.01
0x401f98 1 0.01
0x401fa0 1 0.01
0x401fa8 1 0.01
0x401fe0 1 0.01
0x401fe8 1 0.01
0x401ff0 1 0.01
0x401ff8 1 0.01
0x402000 1 0.01
0x402008 1 0.01
0x402010 2 0.02
0x402018 2 0.02
0x402020 2 0.02
0x402028 2 0.02
0x402030 2 0.02
0x402038 2 0.02
0x402040 2 0.02
0x402048 2 0.02
0x402050 1 0.01
0x402058 1 0.01
0x402060 1 0.01
0x402068 1 0.01
0x402070 1 0.01
0x402078 1 0.01
0x402080 1 0.01
0x402088 1 0.01
0x402090 1 0.01
0x402098 1 0.01
0x4020a0 1 0.01
0x4020a8 1 0.01
0x4020b0 1 0.01
0x4020b8 1 0.01
0x4020c0 1 0.01
0x4020c8 1 0.01
0x4020d0 1 0.01
0x4020d8 1 0.01
0x402118 1 0.01
0x402120 1 0.01
0x402128 1 0.01
0x402130 3 0.03
0x402138 3 0.03
0x402140 3 0.03
0x402148 3 0.03
0x402150 3 0.03
0x402158 3 0.03
0x402160 3 0.03
0x402168 3 0.03
0x402170 3 0.03
0x402178 3 0.03
0x402180 4 0.04
0x402188 4 0.04
0x402190 4 0.04
0x402198 4 0.04
0x4021a0 4 0.04
0x4021a8 4 0.04
0x4021b0 4 0.04
0x4021b8 4 0.04
0x4021c0 4 0.04
0x4021c8 4 0.04
0x4021f8 4 0.04
0x402200 4 0.04
0x402208 4 0.04
0x402210 390 3.73
0x402218 390 3.73
0x402220 390 3.73
0x402228 390 3.73
0x402230 390 3.73
0x402238 390 3.73
0x402240 390 3.73
0x402248 390 3.73
0x402250 390 3.73
0x402258 390 3.73
0x402260 390 3.73
0x402268 390 3.73
0x402270 4 0.04
0x402278 4 0.04
0x402280 4 0.04
0x402288 12 0.11
0x402290 12 0.11
0x402298 12 0.11
0x4022a0 12 0.11
0x4022a8 4 0.04
0x4022b0 4 0.04
0x4022d8 4 0.04
0x4022e0 4 0.04
0x4024b0 1 0.01
0x4024b8 1 0.01
0x4024c0 1 0.01
0x4024c8 1 0.01
0x4024d0 1 0.01
0x4024d8 1 0.01
0x4024e0 1 0.01
0x4024e8 1 0.01
0x4024f0 1 0.01
0x4024f8 1 0.01
0x402508 1 0.01
0x402510 1 0.01
0x402518 1 0.01
0x402520 1 0.01
0x402528 1 0.01
0x402530 1 0.01
0x402538 1 0.01
0x402540 1 0.01
0x402548 1 0.01
0x402550 1 0.01
0x402558 1 0.01
0x402560 1 0.01
0x402568 1 0.01
0x402570 1 0.01
0x402578 1 0.01
0x402580 1 0.01
0x402588 1 0.01
0x402590 1 0.01
0x402598 1 0.01
0x4025a0 1 0.01
0x4025a8 1 0.01
0x4025b0 1 0.01
0x4025b8 1 0.01
0x4025c0 1 0.01
0x4025c8 1 0.01
0x402618 1 0.01
0x402620 1 0.01
0x402628 1 0.01
0x402630 1 0.01
0x402638 1 0.01
0x402640 1 0.01
0x402648 1 0.01
0x402660 1 0.01
0x402668 1 0.01
0x402670 1 0.01
0x402678 1 0.01
0x402680 1 0.01
0x402688 1 0.01
0x402690 1 0.01
0x402698 1 0.01
0x4026a0 1 0.01
0x4026a8 1 0.01
0x4026b0 1 0.01
0x4026b8 1 0.01
0x4026c0 1 0.01
0x402710 1 0.01
0x402718 1 0.01
0x402720 1 0.01
0x402728 1 0.01
0x402730 1 0.01
0x402738 1 0.01
0x402740 1 0.01
0x402748 1 0.01
0x402750 1 0.01
0x402758 1 0.01
0x402760 1 0.01
0x402768 1 0.01
0x402770 1 0.01
0x402778 1 0.01
0x402780 1 0.01
0x402788 1 0.01
0x402790 1 0.01
0x402798 1 0.01
0x4027a0 1 0.01
0x4027a8 1 0.01
0x4027b0 1 0.01
0x4027b8 1 0.01
0x4027c0 1 0.01
0x4027c8 1 0.01
0x4027d0 1 0.01
0x4027d8 1 0.01
0x4027e0 1 0.01
0x4027e8 1 0.01
0x4028a0 1 0.01
0x4028a8 1 0.01
0x4028b0 1 0.01
0x4028b8 1 0.01
0x4028c0 1 0.01
0x402a10 1 0.01
0x402a18 1 0.01
0x402d28 1 0.01
0x402d30 1 0.01
0x402d38 1 0.01
0x402d40 1 0.01
0x402d48 1 0.01
0x402d50 1 0.01
0x402d58 1 0.01
0x402d60 1 0.01
0x402d68 1 0.01
0x402d70 1 0.01
0x402d78 1 0.01
0x402d80 1 0.01
0x402da8 1 0.01
0x402db0 1 0.01
0x402de0 1 0.01
0x402de8 1 0.01
0x402df0 1 0.01
0x402df8 1 0.01
0x403228 2 0.02
0x403230 2 0.02
0x403238 2 0.02
0x403240 2 0.02
0x403248 2 0.02
0x403250 2 0.02
0x403258 2 0.02
0x403260 2 0.02
0x403268 2 0.02
0x403270 2 0.02
0x403278 2 0.02
0x403280 2 0.02
0x403288 2 0.02
0x403290 2 0.02
0x403298 2 0.02
0x4032a0 2 0.02
0x4032a8 2 0.02
0x4032b0 2 0.02
0x4032b8 2 0.02
0x4032c0 2 0.02
0x4032c8 2 0.02
0x4032d0 2 0.02
0x4032d8 2 0.02
0x4032e0 2 0.02
0x4032e8 2 0.02
0x4032f0 2 0.02
0x4032f8 2 0.02
0x403300 2 0.02
0x4034b8 2 0.02
0x4034c0 2 0.02
0x4034c8 1 0.01
0x4034d0 1 0.01
0x4034d8 1 0.01
0x4034e0 1 0.01
0x4034e8 1 0.01
0x4034f0 1 0.01
0x4034f8 1 0.01
0x403560 2 0.02
0x403568 2 0.02
0x403570 2 0.02
0x403578 2 0.02
0x4035b0 2 0.02
0x4035b8 2 0.02
0x4035c0 2 0.02
0x4035c8 2 0.02
0x4035d0 2 0.02
0x4035d8 2 0.02
0x4035e0 2 0.02
0x4035e8 2 0.02
0x4035f0 2 0.02
0x4035f8 2 0.02
0x403600 2 0.02
0x403900 2 0.02
0x403908 2 0.02
0x403910 2 0.02
0x403918 2 0.02
0x403920 2 0.02
0x403928 2 0.02
0x403930 2 0.02
0x403938 2 0.02
0x403940 2 0.02
0x403958 2 0.02
0x403960 2 0.02
0x403968 2 0.02
0x403970 2 0.02
0x403978 2 0.02
0x403980 2 0.02
0x403988 2 0.02
0x403990 2 0.02
0x403998 2 0.02
0x4039a0 2 0.02
0x4039a8 2 0.02
0x403e40 2 0.02
0x403e48 2 0.02
0x403e50 2 0.02
0x403e58 2 0.02
0x403e60 2 0.02
0x403e68 2 0.02
0x403e70 2 0.02
0x403e78 2 0.02
0x403e80 2 0.02
0x403e88 2 0.02
0x403e90 2 0.02
0x403e98 2 0.02
0x403ea0 2 0.02
0x403ea8 2 0.02
0x403eb0 2 0.02
0x403ec8 2 0.02
0x403ed0 2 0.02
0x403ed8 2 0.02
0x403ee0 2 0.02
0x403ee8 2 0.02
0x403ef0 2 0.02
0x403ef8 2 0.02
0x403f20 2 0.02
0x403f28 2 0.02
0x403f30 2 0.02
0x403f38 2 0.02
0x403f40 2 0.02
0x403f78 2 0.02
0x403f80 2 0.02
0x403f88 2 0.02
0x403f90 2 0.02
0x403f98 2 0.02
0x403fa0 2 0.02
0x403fa8 2 0.02
0x403fb0 2 0.02
0x403fb8 2 0.02
0x403fc0 2 0.02
0x403fc8 2 0.02
0x403fd0 2 0.02
0x403fd8 2 0.02
0x403fe0 2 0.02
0x403fe8 2 0.02
0x403ff0 2 0.02
0x403ff8 2 0.02
0x404000 2 0.02
0x404008 2 0.02
0x404010 2 0.02
0x404018 2 0.02
0x404020 2 0.02
0x404028 2 0.02
0x404030 2 0.02
0x404038 2 0.02
0x404040 2 0.02
0x404048 2 0.02
0x404050 2 0.02
0x404058 2 0.02
0x404060 2 0.02
0x404068 1 0.01
0x404070 1 0.01
0x404088 1 0.01
0x404090 1 0.01
0x404098 1 0.01
0x4040a0 1 0.01
0x4040a8 1 0.01
0x4040b0 1 0.01
0x4040b8 1 0.01
0x4040f0 1 0.01
0x4040f8 1 0.01
0x404100 1 0.01
0x404128 2 0.02
0x404130 2 0.02
0x404138 2 0.02
0x404140 2 0.02
0x404148 2 0.02
0x404150 2 0.02
0x404158 2 0.02
0x404160 2 0.02
0x404168 2 0.02
0x404198 2 0.02
0x404260 2 0.02
0x404268 2 0.02
0x404270 2 0.02
0x404298 2 0.02
0x4042a0 2 0.02
0x4042b0 2 0.02
0x4042b8 2 0.02
0x4042c0 2 0.02
0x4042c8 2 0.02
0x4042d0 2 0.02
0x4042d8 2 0.02
0x404308 2 0.02
0x404310 2 0.02
0x404318 2 0.02
0x404320 2 0.02
0x404338 2 0.02
0x404340 2 0.02
0x404348 2 0.02
0x404350 2 0.02
0x404358 2 0.02
0x404360 2 0.02
0x404368 2 0.02
0x404370 2 0.02
0x404908 3 0.03
0x404910 3 0.03
0x404918 3 0.03
0x404920 3 0.03
0x404928 3 0.03
0x404930 3 0.03
0x404938 3 0.03
0x404940 3 0.03
0x404948 3 0.03
0x404950 3 0.03
0x404958 3 0.03
0x404960 3 0.03
0x404968 3 0.03
0x404970 3 0.03
0x404978 3 0.03
0x404b20 2 0.02
0x404b28 2 0.02
0x404b30 2 0.02
0x404b38 2 0.02
0x404b40 2 0.02
0x404b48 2 0.02
0x404fc0 3 0.03
0x404fc8 3 0.03
0x404fd0 3 0.03
0x404fd8 3 0.03
0x404ff0 3 0.03
0x404ff8 3 0.03
0x405000 3 0.03
0x405008 3 0.03
0x405010 3 0.03
0x405018 3 0.03
0x405020 3 0.03
0x405028 3 0.03
0x405030 3 0.03
0x405038 3 0.03
0x405040 3 0.03
0x4058a0 2 0.02
0x4058a8 2 0.02
0x4058b0 2 0.02
0x4058b8 2 0.02
0x4058c0 2 0.02
0x4058c8 2 0.02
0x4058d0 2 0.02
0x4058d8 2 0.02
0x4058e0 2 0.02
0x4058e8 2 0.02
0x4058f0 2 0.02
0x4058f8 1 0.01
0x405900 1 0.01
0x405908 1 0.01
0x405910 1 0.01
0x405918 1 0.01
0x405920 1 0.01
0x405928 1 0.01
0x405930 1 0.01
0x405958 1 0.01
0x405960 1 0.01
0x4059a0 1 0.01
0x4059a8 1 0.01
0x4059b0 2 0.02
0x4059b8 2 0.02
0x4059c0 2 0.02
0x4059c8 2 0.02
0x4059d0 2 0.02
0x405ab0 2 0.02
0x405ab8 2 0.02
0x405ac0 2 0.02
0x405ac8 2 0.02
0x405ad0 2 0.02
0x405b60 3 0.03
0x405b68 3 0.03
0x405b70 3 0.03
0x405b80 3 0.03
0x405b88 3 0.03
0x405b90 3 0.03
0x405b98 3 0.03
0x405ba0 3 0.03
0x405ba8 3 0.03
0x405bd0 1 0.01
0x405bd8 1 0.01
0x405be0 1 0.01
0x405be8 1 0.01
0x405bf0 1 0.01
sim_num_insn_by_pc.end_dist

ld_text_base             0x00400000 # target_name text (code) segment base
ld_text_size                  23856 # target_name text (code) size in bytes
ld_data_base             0x10000000 # target_name initialized data segment base
ld_data_size                  21856 # target_name init'ed `.data' and uninit'ed `.bss' size in bytes
ld_stack_base            0x7fffc000 # target_name stack segment base (highest address in stack)
ld_stack_size                 16384 # target_name initial stack size
ld_prog_entry            0x00400140 # target_name entry point (initial PC)
ld_environ_base          0x7fff8000 # target_name environment base address address
ld_target_big_endian              0 # target executable endian-ness, non-zero if big endian
mem.page_count                   12 # total number of pages allocated
mem.page_mem                    48k # total size of memory pages allocated
mem.ptab_misses                  12 # total first level page table misses
mem.ptab_accesses            202818 # total page table accesses
mem.ptab_miss_rate           0.0001 # first level page table miss rate

+--------------------------------------------------------------+
| effective code range:         [0, fffffff8]                  |
| effective bpred count:        0                              |
| effective sim cycles:         0                              |
| effective bpred misses:       0                              |
| effective icache misses:      0                              |
+--------------------------------------------------------------+

