sim-profile: SimpleScalar/PISA Tool Set version 3.0 of August, 2003.
Copyright (c) 1994-2003 by Todd M. Austin, Ph.D. and SimpleScalar, LLC.
All Rights Reserved. This version of SimpleScalar is licensed for academic
non-commercial use.  No portion of this work may be used by any commercial
entity, or for any commercial purpose, without the prior written permission
of SimpleScalar, LLC (info@simplescalar.com).

sim: command line: /home/sudiptac/sudiptac/Work/simplesim-3.0/sim-profile -pcstat sim_num_insn jfdcint 

sim: simulation started @ Wed Aug 10 19:12:37 2011, options follow:

sim-profile: This simulator implements a functional simulator with
profiling support.  Run with the `-h' flag to see profiling options
available.

# -config                     # load configuration from a file
# -dumpconfig                 # dump configuration to a file
# -h                    false # print help message    
# -v                    false # verbose operation     
# -d                    false # enable debug message  
# -i                    false # start in Dlite debugger
-seed                       1 # random number generator seed (0 for timer seed)
# -q                    false # initialize and terminate immediately
# -chkpt               <null> # restore EIO trace execution from <fname>
# -redir:sim           <null> # redirect simulator output to file (non-interactive only)
# -redir:prog          <null> # redirect simulated program output to file
-nice                       0 # simulator scheduling priority
-max:inst                   0 # maximum number of inst's to execute
-all                    false # enable all profile options
-iclass                 false # enable instruction class profiling
-iprof                  false # enable instruction profiling
-brprof                 false # enable branch instruction profiling
-amprof                 false # enable address mode profiling
-segprof                false # enable load/store address segment profiling
-tsymprof               false # enable text symbol profiling
-taddrprof              false # enable text address profiling
-dsymprof               false # enable data symbol profiling
-internal               false # include compiler-internal symbols during symbol profiling
# -pcstat        sim_num_insn # profile stat(s) against text addr's (mult uses ok)

sim: ** starting functional simulation **

sim: ** simulation statistics **
sim_num_insn                   9836 # total number of instructions executed
sim_num_refs                   3917 # total number of loads and stores executed
sim_elapsed_time                  1 # total simulation time in seconds
sim_inst_rate             9836.0000 # simulation speed (in insts/sec)

sim_num_insn_by_pc     # total number of instructions executed (by text address)
sim_num_insn_by_pc.count = 1133
sim_num_insn_by_pc.total = 9835
sim_num_insn_by_pc.imin = 0x400140
sim_num_insn_by_pc.imax = 0x4060e0
sim_num_insn_by_pc.average =   8.6805
sim_num_insn_by_pc.std_dev =  40.4557
sim_num_insn_by_pc.overflows = 0
# pdf == prob dist fn, cdf == cumulative dist fn
#          index      count    pdf 
sim_num_insn_by_pc.start_dist
0x400140 1 0.01
0x400148 1 0.01
0x400150 1 0.01
0x400158 1 0.01
0x400160 1 0.01
0x400168 1 0.01
0x400170 1 0.01
0x400178 1 0.01
0x400180 1 0.01
0x400188 1 0.01
0x400190 1 0.01
0x400198 1 0.01
0x4001a0 1 0.01
0x4001a8 1 0.01
0x4001b0 1 0.01
0x4001b8 1 0.01
0x4001c0 1 0.01
0x4001c8 1 0.01
0x4001d0 1 0.01
0x4001d8 1 0.01
0x4001e0 1 0.01
0x4001f0 1 0.01
0x4001f8 1 0.01
0x400200 1 0.01
0x400208 1 0.01
0x400210 1 0.01
0x400218 1 0.01
0x400220 1 0.01
0x400228 8 0.08
0x400230 8 0.08
0x400238 8 0.08
0x400240 8 0.08
0x400248 8 0.08
0x400250 8 0.08
0x400258 8 0.08
0x400260 8 0.08
0x400268 8 0.08
0x400270 8 0.08
0x400278 8 0.08
0x400280 8 0.08
0x400288 8 0.08
0x400290 8 0.08
0x400298 8 0.08
0x4002a0 8 0.08
0x4002a8 8 0.08
0x4002b0 8 0.08
0x4002b8 8 0.08
0x4002c0 8 0.08
0x4002c8 8 0.08
0x4002d0 8 0.08
0x4002d8 8 0.08
0x4002e0 8 0.08
0x4002e8 8 0.08
0x4002f0 8 0.08
0x4002f8 8 0.08
0x400300 8 0.08
0x400308 8 0.08
0x400310 8 0.08
0x400318 8 0.08
0x400320 8 0.08
0x400328 8 0.08
0x400330 8 0.08
0x400338 8 0.08
0x400340 8 0.08
0x400348 8 0.08
0x400350 8 0.08
0x400358 8 0.08
0x400360 8 0.08
0x400368 8 0.08
0x400370 8 0.08
0x400378 8 0.08
0x400380 8 0.08
0x400388 8 0.08
0x400390 8 0.08
0x400398 8 0.08
0x4003a0 8 0.08
0x4003a8 8 0.08
0x4003b0 8 0.08
0x4003b8 8 0.08
0x4003c0 8 0.08
0x4003c8 8 0.08
0x4003d0 8 0.08
0x4003d8 8 0.08
0x4003e0 8 0.08
0x4003e8 8 0.08
0x4003f0 8 0.08
0x4003f8 8 0.08
0x400400 8 0.08
0x400408 8 0.08
0x400410 8 0.08
0x400418 8 0.08
0x400420 8 0.08
0x400428 8 0.08
0x400430 8 0.08
0x400438 8 0.08
0x400440 8 0.08
0x400448 8 0.08
0x400450 8 0.08
0x400458 8 0.08
0x400460 8 0.08
0x400468 8 0.08
0x400470 8 0.08
0x400478 8 0.08
0x400480 8 0.08
0x400488 8 0.08
0x400490 8 0.08
0x400498 8 0.08
0x4004a0 8 0.08
0x4004a8 8 0.08
0x4004b0 8 0.08
0x4004b8 8 0.08
0x4004c0 8 0.08
0x4004c8 8 0.08
0x4004d0 8 0.08
0x4004d8 8 0.08
0x4004e0 8 0.08
0x4004e8 8 0.08
0x4004f0 8 0.08
0x4004f8 8 0.08
0x400500 8 0.08
0x400508 8 0.08
0x400510 8 0.08
0x400518 8 0.08
0x400520 8 0.08
0x400528 8 0.08
0x400530 8 0.08
0x400538 8 0.08
0x400540 8 0.08
0x400548 8 0.08
0x400550 8 0.08
0x400558 8 0.08
0x400560 8 0.08
0x400568 8 0.08
0x400570 8 0.08
0x400578 8 0.08
0x400580 8 0.08
0x400588 8 0.08
0x400590 8 0.08
0x400598 8 0.08
0x4005a0 8 0.08
0x4005a8 8 0.08
0x4005b0 8 0.08
0x4005b8 8 0.08
0x4005c0 8 0.08
0x4005c8 8 0.08
0x4005d0 8 0.08
0x4005d8 8 0.08
0x4005e0 8 0.08
0x4005e8 8 0.08
0x4005f0 8 0.08
0x4005f8 8 0.08
0x400600 8 0.08
0x400608 8 0.08
0x400610 8 0.08
0x400618 8 0.08
0x400620 8 0.08
0x400628 8 0.08
0x400630 8 0.08
0x400638 8 0.08
0x400640 8 0.08
0x400648 8 0.08
0x400650 8 0.08
0x400658 8 0.08
0x400660 8 0.08
0x400668 8 0.08
0x400670 8 0.08
0x400678 8 0.08
0x400680 8 0.08
0x400688 8 0.08
0x400690 8 0.08
0x400698 8 0.08
0x4006a0 8 0.08
0x4006a8 8 0.08
0x4006b0 8 0.08
0x4006b8 8 0.08
0x4006c0 8 0.08
0x4006c8 8 0.08
0x4006d0 8 0.08
0x4006d8 8 0.08
0x4006e0 8 0.08
0x4006e8 8 0.08
0x4006f0 1 0.01
0x4006f8 1 0.01
0x400700 1 0.01
0x400708 1 0.01
0x400710 8 0.08
0x400718 8 0.08
0x400720 8 0.08
0x400728 8 0.08
0x400730 8 0.08
0x400738 8 0.08
0x400740 8 0.08
0x400748 8 0.08
0x400750 8 0.08
0x400758 8 0.08
0x400760 8 0.08
0x400768 8 0.08
0x400770 8 0.08
0x400778 8 0.08
0x400780 8 0.08
0x400788 8 0.08
0x400790 8 0.08
0x400798 8 0.08
0x4007a0 8 0.08
0x4007a8 8 0.08
0x4007b0 8 0.08
0x4007b8 8 0.08
0x4007c0 8 0.08
0x4007c8 8 0.08
0x4007d0 8 0.08
0x4007d8 8 0.08
0x4007e0 8 0.08
0x4007e8 8 0.08
0x4007f0 8 0.08
0x4007f8 8 0.08
0x400800 8 0.08
0x400808 8 0.08
0x400810 8 0.08
0x400818 8 0.08
0x400820 8 0.08
0x400828 8 0.08
0x400830 8 0.08
0x400838 8 0.08
0x400840 8 0.08
0x400848 8 0.08
0x400850 8 0.08
0x400858 8 0.08
0x400860 8 0.08
0x400868 8 0.08
0x400870 8 0.08
0x400878 8 0.08
0x400880 8 0.08
0x400888 8 0.08
0x400890 8 0.08
0x400898 8 0.08
0x4008a0 8 0.08
0x4008a8 8 0.08
0x4008b0 8 0.08
0x4008b8 8 0.08
0x4008c0 8 0.08
0x4008c8 8 0.08
0x4008d0 8 0.08
0x4008d8 8 0.08
0x4008e0 8 0.08
0x4008e8 8 0.08
0x4008f0 8 0.08
0x4008f8 8 0.08
0x400900 8 0.08
0x400908 8 0.08
0x400910 8 0.08
0x400918 8 0.08
0x400920 8 0.08
0x400928 8 0.08
0x400930 8 0.08
0x400938 8 0.08
0x400940 8 0.08
0x400948 8 0.08
0x400950 8 0.08
0x400958 8 0.08
0x400960 8 0.08
0x400968 8 0.08
0x400970 8 0.08
0x400978 8 0.08
0x400980 8 0.08
0x400988 8 0.08
0x400990 8 0.08
0x400998 8 0.08
0x4009a0 8 0.08
0x4009a8 8 0.08
0x4009b0 8 0.08
0x4009b8 8 0.08
0x4009c0 8 0.08
0x4009c8 8 0.08
0x4009d0 8 0.08
0x4009d8 8 0.08
0x4009e0 8 0.08
0x4009e8 8 0.08
0x4009f0 8 0.08
0x4009f8 8 0.08
0x400a00 8 0.08
0x400a08 8 0.08
0x400a10 8 0.08
0x400a18 8 0.08
0x400a20 8 0.08
0x400a28 8 0.08
0x400a30 8 0.08
0x400a38 8 0.08
0x400a40 8 0.08
0x400a48 8 0.08
0x400a50 8 0.08
0x400a58 8 0.08
0x400a60 8 0.08
0x400a68 8 0.08
0x400a70 8 0.08
0x400a78 8 0.08
0x400a80 8 0.08
0x400a88 8 0.08
0x400a90 8 0.08
0x400a98 8 0.08
0x400aa0 8 0.08
0x400aa8 8 0.08
0x400ab0 8 0.08
0x400ab8 8 0.08
0x400ac0 8 0.08
0x400ac8 8 0.08
0x400ad0 8 0.08
0x400ad8 8 0.08
0x400ae0 8 0.08
0x400ae8 8 0.08
0x400af0 8 0.08
0x400af8 8 0.08
0x400b00 8 0.08
0x400b08 8 0.08
0x400b10 8 0.08
0x400b18 8 0.08
0x400b20 8 0.08
0x400b28 8 0.08
0x400b30 8 0.08
0x400b38 8 0.08
0x400b40 8 0.08
0x400b48 8 0.08
0x400b50 8 0.08
0x400b58 8 0.08
0x400b60 8 0.08
0x400b68 8 0.08
0x400b70 8 0.08
0x400b78 8 0.08
0x400b80 8 0.08
0x400b88 8 0.08
0x400b90 8 0.08
0x400b98 8 0.08
0x400ba0 8 0.08
0x400ba8 8 0.08
0x400bb0 8 0.08
0x400bb8 8 0.08
0x400bc0 8 0.08
0x400bc8 8 0.08
0x400bd0 8 0.08
0x400bd8 8 0.08
0x400be0 8 0.08
0x400be8 1 0.01
0x400bf0 1 0.01
0x400bf8 1 0.01
0x400c00 1 0.01
0x400c08 1 0.01
0x400c10 1 0.01
0x400c18 1 0.01
0x400c20 1 0.01
0x400c28 1 0.01
0x400c30 1 0.01
0x400c38 1 0.01
0x400c40 1 0.01
0x400c48 64 0.65
0x400c50 64 0.65
0x400c58 64 0.65
0x400c60 64 0.65
0x400c68 64 0.65
0x400c70 64 0.65
0x400c78 64 0.65
0x400c80 64 0.65
0x400c88 64 0.65
0x400c90 64 0.65
0x400c98 64 0.65
0x400ca0 64 0.65
0x400ca8 64 0.65
0x400cb0 64 0.65
0x400cb8 64 0.65
0x400cc0 64 0.65
0x400cc8 64 0.65
0x400cd0 64 0.65
0x400cd8 64 0.65
0x400ce0 64 0.65
0x400ce8 64 0.65
0x400cf0 64 0.65
0x400cf8 1 0.01
0x400d00 1 0.01
0x400d08 1 0.01
0x400d10 1 0.01
0x400d20 1 0.01
0x400d28 1 0.01
0x400d30 1 0.01
0x400d38 1 0.01
0x400d40 1 0.01
0x400d48 1 0.01
0x400d50 1 0.01
0x400d58 1 0.01
0x400d60 1 0.01
0x400d68 1 0.01
0x400d70 1 0.01
0x400d78 1 0.01
0x400d80 1 0.01
0x400d88 1 0.01
0x400d90 1 0.01
0x400d98 1 0.01
0x400da0 1 0.01
0x400da8 1 0.01
0x400db0 1 0.01
0x400db8 1 0.01
0x400dc0 1 0.01
0x400dc8 1 0.01
0x400dd0 1 0.01
0x400e80 1 0.01
0x400e88 1 0.01
0x400e90 1 0.01
0x400e98 1 0.01
0x400ea0 1 0.01
0x400ef0 1 0.01
0x400ef8 1 0.01
0x400f00 1 0.01
0x400f08 1 0.01
0x400f10 1 0.01
0x400f18 1 0.01
0x400f20 1 0.01
0x400f28 1 0.01
0x400f30 1 0.01
0x400f38 1 0.01
0x400f40 1 0.01
0x400f48 1 0.01
0x400f58 1 0.01
0x400f60 1 0.01
0x400f68 1 0.01
0x400f70 1 0.01
0x400f78 1 0.01
0x401190 1 0.01
0x401198 1 0.01
0x4011a0 1 0.01
0x4011a8 1 0.01
0x4011b0 1 0.01
0x4011b8 1 0.01
0x4011c0 1 0.01
0x4011e0 1 0.01
0x401200 1 0.01
0x401208 1 0.01
0x401210 1 0.01
0x401218 1 0.01
0x401220 1 0.01
0x401228 1 0.01
0x401248 1 0.01
0x401250 1 0.01
0x401258 1 0.01
0x401260 1 0.01
0x401280 1 0.01
0x401288 1 0.01
0x401290 1 0.01
0x401298 1 0.01
0x4012a0 1 0.01
0x4012a8 1 0.01
0x4012b0 1 0.01
0x4012b8 1 0.01
0x4012c0 1 0.01
0x4012c8 1 0.01
0x4012d0 1 0.01
0x4012d8 1 0.01
0x4012e0 1 0.01
0x4012e8 1 0.01
0x4012f0 1 0.01
0x4012f8 1 0.01
0x401300 1 0.01
0x401308 1 0.01
0x401310 1 0.01
0x401318 1 0.01
0x401320 1 0.01
0x401328 1 0.01
0x401330 1 0.01
0x401338 1 0.01
0x401348 1 0.01
0x401350 1 0.01
0x401358 1 0.01
0x401360 1 0.01
0x401368 1 0.01
0x401370 1 0.01
0x401378 1 0.01
0x401380 1 0.01
0x401388 1 0.01
0x401390 1 0.01
0x401398 1 0.01
0x4013a0 1 0.01
0x4013a8 1 0.01
0x4013b0 1 0.01
0x4013b8 1 0.01
0x4013c0 1 0.01
0x4013c8 1 0.01
0x4013d0 1 0.01
0x4013d8 1 0.01
0x4013e0 1 0.01
0x4013e8 1 0.01
0x4013f0 1 0.01
0x4013f8 1 0.01
0x401400 1 0.01
0x401408 1 0.01
0x401418 1 0.01
0x401420 1 0.01
0x401428 1 0.01
0x401430 1 0.01
0x401438 1 0.01
0x401440 1 0.01
0x401448 1 0.01
0x401450 1 0.01
0x401458 1 0.01
0x401460 1 0.01
0x401468 1 0.01
0x401470 1 0.01
0x401478 1 0.01
0x401480 1 0.01
0x401488 1 0.01
0x401490 1 0.01
0x401498 1 0.01
0x4014c8 1 0.01
0x4014d0 1 0.01
0x4014e0 1 0.01
0x4014e8 1 0.01
0x401500 1 0.01
0x401508 1 0.01
0x401510 1 0.01
0x401518 1 0.01
0x401528 1 0.01
0x401530 1 0.01
0x401538 1 0.01
0x401540 1 0.01
0x401548 1 0.01
0x4017d0 1 0.01
0x4017d8 1 0.01
0x4017e0 1 0.01
0x4017e8 1 0.01
0x4017f8 1 0.01
0x401800 1 0.01
0x401808 1 0.01
0x401810 1 0.01
0x401818 1 0.01
0x401820 1 0.01
0x401828 1 0.01
0x401830 1 0.01
0x401838 1 0.01
0x401840 1 0.01
0x401848 1 0.01
0x401850 1 0.01
0x401858 1 0.01
0x401860 1 0.01
0x401868 1 0.01
0x401870 1 0.01
0x401878 1 0.01
0x401880 1 0.01
0x401888 1 0.01
0x401890 1 0.01
0x401898 1 0.01
0x4018a0 1 0.01
0x4018b8 1 0.01
0x4018c0 1 0.01
0x4018c8 1 0.01
0x4018d0 1 0.01
0x4018d8 1 0.01
0x4018e0 1 0.01
0x4018f0 1 0.01
0x4018f8 1 0.01
0x401c90 1 0.01
0x401c98 1 0.01
0x401ca0 1 0.01
0x401ca8 1 0.01
0x401cb0 1 0.01
0x401cb8 1 0.01
0x401cc0 1 0.01
0x401cc8 1 0.01
0x401cd0 1 0.01
0x401cd8 1 0.01
0x401ce0 1 0.01
0x401ce8 1 0.01
0x401cf0 1 0.01
0x401cf8 1 0.01
0x401d00 1 0.01
0x401d08 1 0.01
0x401d10 1 0.01
0x401d18 1 0.01
0x401d20 1 0.01
0x401d28 1 0.01
0x401d30 1 0.01
0x401d38 1 0.01
0x401d40 1 0.01
0x401d48 1 0.01
0x401d50 1 0.01
0x401d58 1 0.01
0x401e40 1 0.01
0x401e48 1 0.01
0x401e50 1 0.01
0x401e58 1 0.01
0x401e60 1 0.01
0x401e68 1 0.01
0x401e70 1 0.01
0x401e80 1 0.01
0x401e88 1 0.01
0x401e90 1 0.01
0x401e98 1 0.01
0x401ea0 1 0.01
0x401ea8 1 0.01
0x401eb0 1 0.01
0x401eb8 1 0.01
0x401ec0 1 0.01
0x401ec8 1 0.01
0x401ed0 1 0.01
0x401ed8 1 0.01
0x401ee0 1 0.01
0x401ee8 1 0.01
0x401ef0 1 0.01
0x401ef8 1 0.01
0x401f00 1 0.01
0x402198 1 0.01
0x4021a0 1 0.01
0x4021a8 1 0.01
0x4021b0 1 0.01
0x4021b8 1 0.01
0x4021c0 1 0.01
0x4021c8 1 0.01
0x4021d0 1 0.01
0x4021e0 4 0.04
0x4021e8 4 0.04
0x4021f0 4 0.04
0x4021f8 4 0.04
0x402200 4 0.04
0x402208 4 0.04
0x402210 4 0.04
0x402218 1 0.01
0x402220 1 0.01
0x402228 1 0.01
0x402230 1 0.01
0x402238 1 0.01
0x402240 1 0.01
0x402248 3 0.03
0x402250 3 0.03
0x402268 3 0.03
0x402270 3 0.03
0x402278 3 0.03
0x402280 3 0.03
0x402288 3 0.03
0x402290 3 0.03
0x402298 1 0.01
0x4022a0 1 0.01
0x4022a8 3 0.03
0x4022b0 3 0.03
0x4022b8 3 0.03
0x4022c0 3 0.03
0x4022d8 3 0.03
0x4022e0 3 0.03
0x4022e8 3 0.03
0x4022f0 3 0.03
0x402318 3 0.03
0x402320 3 0.03
0x402328 3 0.03
0x402330 2 0.02
0x402338 2 0.02
0x402340 2 0.02
0x402348 2 0.02
0x402350 2 0.02
0x402368 3 0.03
0x402370 3 0.03
0x402378 1 0.01
0x402380 1 0.01
0x402388 1 0.01
0x402390 1 0.01
0x402398 3 0.03
0x4023a0 3 0.03
0x4023a8 2 0.02
0x4023b0 2 0.02
0x4023b8 2 0.02
0x4023c0 2 0.02
0x4023c8 1 0.01
0x4023d0 1 0.01
0x4023d8 1 0.01
0x4023e0 1 0.01
0x4023e8 1 0.01
0x402408 1 0.01
0x402410 3 0.03
0x402418 3 0.03
0x402420 3 0.03
0x402428 4 0.04
0x402430 4 0.04
0x402438 4 0.04
0x402440 4 0.04
0x402448 4 0.04
0x402450 4 0.04
0x402480 1 0.01
0x402488 1 0.01
0x402490 1 0.01
0x402498 1 0.01
0x4024d0 1 0.01
0x4024d8 1 0.01
0x4024e0 1 0.01
0x4024e8 1 0.01
0x4024f0 1 0.01
0x4024f8 1 0.01
0x402500 2 0.02
0x402508 2 0.02
0x402510 2 0.02
0x402518 2 0.02
0x402520 2 0.02
0x402528 2 0.02
0x402530 2 0.02
0x402538 2 0.02
0x402540 1 0.01
0x402548 1 0.01
0x402550 1 0.01
0x402558 1 0.01
0x402560 1 0.01
0x402568 1 0.01
0x402570 1 0.01
0x402578 1 0.01
0x402580 1 0.01
0x402588 1 0.01
0x402590 1 0.01
0x402598 1 0.01
0x4025a0 1 0.01
0x4025a8 1 0.01
0x4025b0 1 0.01
0x4025b8 1 0.01
0x4025c0 1 0.01
0x4025c8 1 0.01
0x4025d0 1 0.01
0x4025d8 1 0.01
0x4025e0 1 0.01
0x4025e8 1 0.01
0x4025f0 1 0.01
0x402608 1 0.01
0x402610 1 0.01
0x402618 1 0.01
0x402620 3 0.03
0x402628 3 0.03
0x402630 3 0.03
0x402638 3 0.03
0x402640 3 0.03
0x402648 3 0.03
0x402650 3 0.03
0x402658 3 0.03
0x402660 3 0.03
0x402668 3 0.03
0x402670 4 0.04
0x402678 4 0.04
0x402680 4 0.04
0x402688 4 0.04
0x402690 4 0.04
0x402698 4 0.04
0x4026a0 4 0.04
0x4026a8 4 0.04
0x4026b0 4 0.04
0x4026b8 4 0.04
0x4026e8 4 0.04
0x4026f0 4 0.04
0x4026f8 4 0.04
0x402700 390 3.97
0x402708 390 3.97
0x402710 390 3.97
0x402718 390 3.97
0x402720 390 3.97
0x402728 390 3.97
0x402730 390 3.97
0x402738 390 3.97
0x402740 390 3.97
0x402748 390 3.97
0x402750 390 3.97
0x402758 390 3.97
0x402760 4 0.04
0x402768 4 0.04
0x402770 4 0.04
0x402778 12 0.12
0x402780 12 0.12
0x402788 12 0.12
0x402790 12 0.12
0x402798 4 0.04
0x4027a0 4 0.04
0x4027c8 4 0.04
0x4027d0 4 0.04
0x4029a0 1 0.01
0x4029a8 1 0.01
0x4029b0 1 0.01
0x4029b8 1 0.01
0x4029c0 1 0.01
0x4029c8 1 0.01
0x4029d0 1 0.01
0x4029d8 1 0.01
0x4029e0 1 0.01
0x4029e8 1 0.01
0x4029f8 1 0.01
0x402a00 1 0.01
0x402a08 1 0.01
0x402a10 1 0.01
0x402a18 1 0.01
0x402a20 1 0.01
0x402a28 1 0.01
0x402a30 1 0.01
0x402a38 1 0.01
0x402a40 1 0.01
0x402a48 1 0.01
0x402a50 1 0.01
0x402a58 1 0.01
0x402a60 1 0.01
0x402a68 1 0.01
0x402a70 1 0.01
0x402a78 1 0.01
0x402a80 1 0.01
0x402a88 1 0.01
0x402a90 1 0.01
0x402a98 1 0.01
0x402aa0 1 0.01
0x402aa8 1 0.01
0x402ab0 1 0.01
0x402ab8 1 0.01
0x402b08 1 0.01
0x402b10 1 0.01
0x402b18 1 0.01
0x402b20 1 0.01
0x402b28 1 0.01
0x402b30 1 0.01
0x402b38 1 0.01
0x402b50 1 0.01
0x402b58 1 0.01
0x402b60 1 0.01
0x402b68 1 0.01
0x402b70 1 0.01
0x402b78 1 0.01
0x402b80 1 0.01
0x402b88 1 0.01
0x402b90 1 0.01
0x402b98 1 0.01
0x402ba0 1 0.01
0x402ba8 1 0.01
0x402bb0 1 0.01
0x402c00 1 0.01
0x402c08 1 0.01
0x402c10 1 0.01
0x402c18 1 0.01
0x402c20 1 0.01
0x402c28 1 0.01
0x402c30 1 0.01
0x402c38 1 0.01
0x402c40 1 0.01
0x402c48 1 0.01
0x402c50 1 0.01
0x402c58 1 0.01
0x402c60 1 0.01
0x402c68 1 0.01
0x402c70 1 0.01
0x402c78 1 0.01
0x402c80 1 0.01
0x402c88 1 0.01
0x402c90 1 0.01
0x402c98 1 0.01
0x402ca0 1 0.01
0x402ca8 1 0.01
0x402cb0 1 0.01
0x402cb8 1 0.01
0x402cc0 1 0.01
0x402cc8 1 0.01
0x402cd0 1 0.01
0x402cd8 1 0.01
0x402d90 1 0.01
0x402d98 1 0.01
0x402da0 1 0.01
0x402da8 1 0.01
0x402db0 1 0.01
0x402f00 1 0.01
0x402f08 1 0.01
0x403218 1 0.01
0x403220 1 0.01
0x403228 1 0.01
0x403230 1 0.01
0x403238 1 0.01
0x403240 1 0.01
0x403248 1 0.01
0x403250 1 0.01
0x403258 1 0.01
0x403260 1 0.01
0x403268 1 0.01
0x403270 1 0.01
0x403298 1 0.01
0x4032a0 1 0.01
0x4032d0 1 0.01
0x4032d8 1 0.01
0x4032e0 1 0.01
0x4032e8 1 0.01
0x403718 2 0.02
0x403720 2 0.02
0x403728 2 0.02
0x403730 2 0.02
0x403738 2 0.02
0x403740 2 0.02
0x403748 2 0.02
0x403750 2 0.02
0x403758 2 0.02
0x403760 2 0.02
0x403768 2 0.02
0x403770 2 0.02
0x403778 2 0.02
0x403780 2 0.02
0x403788 2 0.02
0x403790 2 0.02
0x403798 2 0.02
0x4037a0 2 0.02
0x4037a8 2 0.02
0x4037b0 2 0.02
0x4037b8 2 0.02
0x4037c0 2 0.02
0x4037c8 2 0.02
0x4037d0 2 0.02
0x4037d8 2 0.02
0x4037e0 2 0.02
0x4037e8 2 0.02
0x4037f0 2 0.02
0x4039a8 2 0.02
0x4039b0 2 0.02
0x4039b8 1 0.01
0x4039c0 1 0.01
0x4039c8 1 0.01
0x4039d0 1 0.01
0x4039d8 1 0.01
0x4039e0 1 0.01
0x4039e8 1 0.01
0x403a50 2 0.02
0x403a58 2 0.02
0x403a60 2 0.02
0x403a68 2 0.02
0x403aa0 2 0.02
0x403aa8 2 0.02
0x403ab0 2 0.02
0x403ab8 2 0.02
0x403ac0 2 0.02
0x403ac8 2 0.02
0x403ad0 2 0.02
0x403ad8 2 0.02
0x403ae0 2 0.02
0x403ae8 2 0.02
0x403af0 2 0.02
0x403df0 2 0.02
0x403df8 2 0.02
0x403e00 2 0.02
0x403e08 2 0.02
0x403e10 2 0.02
0x403e18 2 0.02
0x403e20 2 0.02
0x403e28 2 0.02
0x403e30 2 0.02
0x403e48 2 0.02
0x403e50 2 0.02
0x403e58 2 0.02
0x403e60 2 0.02
0x403e68 2 0.02
0x403e70 2 0.02
0x403e78 2 0.02
0x403e80 2 0.02
0x403e88 2 0.02
0x403e90 2 0.02
0x403e98 2 0.02
0x404330 2 0.02
0x404338 2 0.02
0x404340 2 0.02
0x404348 2 0.02
0x404350 2 0.02
0x404358 2 0.02
0x404360 2 0.02
0x404368 2 0.02
0x404370 2 0.02
0x404378 2 0.02
0x404380 2 0.02
0x404388 2 0.02
0x404390 2 0.02
0x404398 2 0.02
0x4043a0 2 0.02
0x4043b8 2 0.02
0x4043c0 2 0.02
0x4043c8 2 0.02
0x4043d0 2 0.02
0x4043d8 2 0.02
0x4043e0 2 0.02
0x4043e8 2 0.02
0x404410 2 0.02
0x404418 2 0.02
0x404420 2 0.02
0x404428 2 0.02
0x404430 2 0.02
0x404468 2 0.02
0x404470 2 0.02
0x404478 2 0.02
0x404480 2 0.02
0x404488 2 0.02
0x404490 2 0.02
0x404498 2 0.02
0x4044a0 2 0.02
0x4044a8 2 0.02
0x4044b0 2 0.02
0x4044b8 2 0.02
0x4044c0 2 0.02
0x4044c8 2 0.02
0x4044d0 2 0.02
0x4044d8 2 0.02
0x4044e0 2 0.02
0x4044e8 2 0.02
0x4044f0 2 0.02
0x4044f8 2 0.02
0x404500 2 0.02
0x404508 2 0.02
0x404510 2 0.02
0x404518 2 0.02
0x404520 2 0.02
0x404528 2 0.02
0x404530 2 0.02
0x404538 2 0.02
0x404540 2 0.02
0x404548 2 0.02
0x404550 2 0.02
0x404558 1 0.01
0x404560 1 0.01
0x404578 1 0.01
0x404580 1 0.01
0x404588 1 0.01
0x404590 1 0.01
0x404598 1 0.01
0x4045a0 1 0.01
0x4045a8 1 0.01
0x4045e0 1 0.01
0x4045e8 1 0.01
0x4045f0 1 0.01
0x404618 2 0.02
0x404620 2 0.02
0x404628 2 0.02
0x404630 2 0.02
0x404638 2 0.02
0x404640 2 0.02
0x404648 2 0.02
0x404650 2 0.02
0x404658 2 0.02
0x404688 2 0.02
0x404750 2 0.02
0x404758 2 0.02
0x404760 2 0.02
0x404788 2 0.02
0x404790 2 0.02
0x4047a0 2 0.02
0x4047a8 2 0.02
0x4047b0 2 0.02
0x4047b8 2 0.02
0x4047c0 2 0.02
0x4047c8 2 0.02
0x4047f8 2 0.02
0x404800 2 0.02
0x404808 2 0.02
0x404810 2 0.02
0x404828 2 0.02
0x404830 2 0.02
0x404838 2 0.02
0x404840 2 0.02
0x404848 2 0.02
0x404850 2 0.02
0x404858 2 0.02
0x404860 2 0.02
0x404df8 3 0.03
0x404e00 3 0.03
0x404e08 3 0.03
0x404e10 3 0.03
0x404e18 3 0.03
0x404e20 3 0.03
0x404e28 3 0.03
0x404e30 3 0.03
0x404e38 3 0.03
0x404e40 3 0.03
0x404e48 3 0.03
0x404e50 3 0.03
0x404e58 3 0.03
0x404e60 3 0.03
0x404e68 3 0.03
0x405010 2 0.02
0x405018 2 0.02
0x405020 2 0.02
0x405028 2 0.02
0x405030 2 0.02
0x405038 2 0.02
0x4054b0 3 0.03
0x4054b8 3 0.03
0x4054c0 3 0.03
0x4054c8 3 0.03
0x4054e0 3 0.03
0x4054e8 3 0.03
0x4054f0 3 0.03
0x4054f8 3 0.03
0x405500 3 0.03
0x405508 3 0.03
0x405510 3 0.03
0x405518 3 0.03
0x405520 3 0.03
0x405528 3 0.03
0x405530 3 0.03
0x405d90 2 0.02
0x405d98 2 0.02
0x405da0 2 0.02
0x405da8 2 0.02
0x405db0 2 0.02
0x405db8 2 0.02
0x405dc0 2 0.02
0x405dc8 2 0.02
0x405dd0 2 0.02
0x405dd8 2 0.02
0x405de0 2 0.02
0x405de8 1 0.01
0x405df0 1 0.01
0x405df8 1 0.01
0x405e00 1 0.01
0x405e08 1 0.01
0x405e10 1 0.01
0x405e18 1 0.01
0x405e20 1 0.01
0x405e48 1 0.01
0x405e50 1 0.01
0x405e90 1 0.01
0x405e98 1 0.01
0x405ea0 2 0.02
0x405ea8 2 0.02
0x405eb0 2 0.02
0x405eb8 2 0.02
0x405ec0 2 0.02
0x405fa0 2 0.02
0x405fa8 2 0.02
0x405fb0 2 0.02
0x405fb8 2 0.02
0x405fc0 2 0.02
0x406050 3 0.03
0x406058 3 0.03
0x406060 3 0.03
0x406070 3 0.03
0x406078 3 0.03
0x406080 3 0.03
0x406088 3 0.03
0x406090 3 0.03
0x406098 3 0.03
0x4060c0 1 0.01
0x4060c8 1 0.01
0x4060d0 1 0.01
0x4060d8 1 0.01
0x4060e0 1 0.01
sim_num_insn_by_pc.end_dist

ld_text_base             0x00400000 # program text (code) segment base
ld_text_size                  25120 # program text (code) size in bytes
ld_data_base             0x10000000 # program initialized data segment base
ld_data_size                   4096 # program init'ed `.data' and uninit'ed `.bss' size in bytes
ld_stack_base            0x7fffc000 # program stack segment base (highest address in stack)
ld_stack_size                 16384 # program initial stack size
ld_prog_entry            0x00400140 # program entry point (initial PC)
ld_environ_base          0x7fff8000 # program environment base address address
ld_target_big_endian              0 # target executable endian-ness, non-zero if big endian
mem.page_count                   13 # total number of pages allocated
mem.page_mem                    52k # total size of memory pages allocated
mem.ptab_misses                  13 # total first level page table misses
mem.ptab_accesses            204900 # total page table accesses
mem.ptab_miss_rate           0.0001 # first level page table miss rate

+--------------------------------------------------------------+
| effective code range:         [0, fffffff8]                  |
| effective bpred count:        0                              |
| effective sim cycles:         0                              |
| effective bpred misses:       0                              |
| effective icache misses:      0                              |
+--------------------------------------------------------------+

