sim-profile: SimpleScalar/PISA Tool Set version 3.0 of August, 2003.
Copyright (c) 1994-2003 by Todd M. Austin, Ph.D. and SimpleScalar, LLC.
All Rights Reserved. This version of SimpleScalar is licensed for academic
non-commercial use.  No portion of this work may be used by any commercial
entity, or for any commercial purpose, without the prior written permission
of SimpleScalar, LLC (info@simplescalar.com).

sim: command line: /home/sudiptac/sudiptac/Work/simplesim-3.0/sim-profile -pcstat sim_num_insn fbw_spi_rcvnav 

sim: simulation started @ Fri May 11 20:53:43 2012, options follow:

sim-profile: This simulator implements a functional simulator with
profiling support.  Run with the `-h' flag to see profiling options
available.

# -config                     # load configuration from a file
# -dumpconfig                 # dump configuration to a file
# -h                    false # print help message    
# -v                    false # verbose operation     
# -d                    false # enable debug message  
# -i                    false # start in Dlite debugger
-seed                       1 # random number generator seed (0 for timer seed)
# -q                    false # initialize and terminate immediately
# -chkpt               <null> # restore EIO trace execution from <fname>
# -redir:sim           <null> # redirect simulator output to file (non-interactive only)
# -redir:prog          <null> # redirect simulated program output to file
-nice                       0 # simulator scheduling priority
-max:inst                   0 # maximum number of inst's to execute
-all                    false # enable all profile options
-iclass                 false # enable instruction class profiling
-iprof                  false # enable instruction profiling
-brprof                 false # enable branch instruction profiling
-amprof                 false # enable address mode profiling
-segprof                false # enable load/store address segment profiling
-tsymprof               false # enable text symbol profiling
-taddrprof              false # enable text address profiling
-dsymprof               false # enable data symbol profiling
-internal               false # include compiler-internal symbols during symbol profiling
# -pcstat        sim_num_insn # profile stat(s) against text addr's (mult uses ok)

sim: ** starting functional simulation **

sim: ** simulation statistics **
sim_num_insn                   5974 # total number of instructions executed
sim_num_refs                   3598 # total number of loads and stores executed
sim_elapsed_time                  1 # total simulation time in seconds
sim_inst_rate             5974.0000 # simulation speed (in insts/sec)

sim_num_insn_by_pc     # total number of instructions executed (by text address)
sim_num_insn_by_pc.count = 785
sim_num_insn_by_pc.total = 5973
sim_num_insn_by_pc.imin = 0x400140
sim_num_insn_by_pc.imax = 0x405b20
sim_num_insn_by_pc.average =   7.6089
sim_num_insn_by_pc.std_dev =  47.6880
sim_num_insn_by_pc.overflows = 0
# pdf == prob dist fn, cdf == cumulative dist fn
#          index      count    pdf 
sim_num_insn_by_pc.start_dist
0x400140 1 0.02
0x400148 1 0.02
0x400150 1 0.02
0x400158 1 0.02
0x400160 1 0.02
0x400168 1 0.02
0x400170 1 0.02
0x400178 1 0.02
0x400180 1 0.02
0x400188 1 0.02
0x400190 1 0.02
0x400198 1 0.02
0x4001a0 1 0.02
0x4001a8 1 0.02
0x4001b0 1 0.02
0x4001b8 1 0.02
0x4001c0 1 0.02
0x4001c8 1 0.02
0x4001d0 1 0.02
0x4001d8 1 0.02
0x4001e0 1 0.02
0x400678 1 0.02
0x400680 1 0.02
0x400688 1 0.02
0x400690 1 0.02
0x400698 1 0.02
0x400708 1 0.02
0x400710 1 0.02
0x400718 1 0.02
0x400728 1 0.02
0x400730 1 0.02
0x400738 1 0.02
0x400740 1 0.02
0x400748 1 0.02
0x400750 1 0.02
0x400760 1 0.02
0x400768 1 0.02
0x400770 1 0.02
0x400778 1 0.02
0x400780 1 0.02
0x400788 1 0.02
0x400790 1 0.02
0x400798 1 0.02
0x4007a0 1 0.02
0x4007a8 1 0.02
0x4007b0 1 0.02
0x4007b8 1 0.02
0x4007c0 1 0.02
0x4007c8 1 0.02
0x4007d0 1 0.02
0x4007d8 1 0.02
0x4007e0 1 0.02
0x4007e8 1 0.02
0x4007f0 1 0.02
0x4007f8 1 0.02
0x400800 1 0.02
0x400808 1 0.02
0x400810 1 0.02
0x4008c0 1 0.02
0x4008c8 1 0.02
0x4008d0 1 0.02
0x4008d8 1 0.02
0x4008e0 1 0.02
0x400930 1 0.02
0x400938 1 0.02
0x400940 1 0.02
0x400948 1 0.02
0x400950 1 0.02
0x400958 1 0.02
0x400960 1 0.02
0x400968 1 0.02
0x400970 1 0.02
0x400978 1 0.02
0x400980 1 0.02
0x400988 1 0.02
0x400998 1 0.02
0x4009a0 1 0.02
0x4009a8 1 0.02
0x4009b0 1 0.02
0x4009b8 1 0.02
0x400bd0 1 0.02
0x400bd8 1 0.02
0x400be0 1 0.02
0x400be8 1 0.02
0x400bf0 1 0.02
0x400bf8 1 0.02
0x400c00 1 0.02
0x400c20 1 0.02
0x400c40 1 0.02
0x400c48 1 0.02
0x400c50 1 0.02
0x400c58 1 0.02
0x400c60 1 0.02
0x400c68 1 0.02
0x400c88 1 0.02
0x400c90 1 0.02
0x400c98 1 0.02
0x400ca0 1 0.02
0x400cc0 1 0.02
0x400cc8 1 0.02
0x400cd0 1 0.02
0x400cd8 1 0.02
0x400ce0 1 0.02
0x400ce8 1 0.02
0x400cf0 1 0.02
0x400cf8 1 0.02
0x400d00 1 0.02
0x400d08 1 0.02
0x400d10 1 0.02
0x400d18 1 0.02
0x400d20 1 0.02
0x400d28 1 0.02
0x400d30 1 0.02
0x400d38 1 0.02
0x400d40 1 0.02
0x400d48 1 0.02
0x400d50 1 0.02
0x400d58 1 0.02
0x400d60 1 0.02
0x400d68 1 0.02
0x400d70 1 0.02
0x400d78 1 0.02
0x400d88 1 0.02
0x400d90 1 0.02
0x400d98 1 0.02
0x400da0 1 0.02
0x400da8 1 0.02
0x400db0 1 0.02
0x400db8 1 0.02
0x400dc0 1 0.02
0x400dc8 1 0.02
0x400dd0 1 0.02
0x400dd8 1 0.02
0x400de0 1 0.02
0x400de8 1 0.02
0x400df0 1 0.02
0x400df8 1 0.02
0x400e00 1 0.02
0x400e08 1 0.02
0x400e10 1 0.02
0x400e18 1 0.02
0x400e20 1 0.02
0x400e28 1 0.02
0x400e30 1 0.02
0x400e38 1 0.02
0x400e40 1 0.02
0x400e48 1 0.02
0x400e58 1 0.02
0x400e60 1 0.02
0x400e68 1 0.02
0x400e70 1 0.02
0x400e78 1 0.02
0x400e80 1 0.02
0x400e88 1 0.02
0x400e90 1 0.02
0x400e98 1 0.02
0x400ea0 1 0.02
0x400ea8 1 0.02
0x400eb0 1 0.02
0x400eb8 1 0.02
0x400ec0 1 0.02
0x400ec8 1 0.02
0x400ed0 1 0.02
0x400ed8 1 0.02
0x400f08 1 0.02
0x400f10 1 0.02
0x400f20 1 0.02
0x400f28 1 0.02
0x400f40 1 0.02
0x400f48 1 0.02
0x400f50 1 0.02
0x400f58 1 0.02
0x400f68 1 0.02
0x400f70 1 0.02
0x400f78 1 0.02
0x400f80 1 0.02
0x400f88 1 0.02
0x401210 1 0.02
0x401218 1 0.02
0x401220 1 0.02
0x401228 1 0.02
0x401238 1 0.02
0x401240 1 0.02
0x401248 1 0.02
0x401250 1 0.02
0x401258 1 0.02
0x401260 1 0.02
0x401268 1 0.02
0x401270 1 0.02
0x401278 1 0.02
0x401280 1 0.02
0x401288 1 0.02
0x401290 1 0.02
0x401298 1 0.02
0x4012a0 1 0.02
0x4012a8 1 0.02
0x4012b0 1 0.02
0x4012b8 1 0.02
0x4012c0 1 0.02
0x4012c8 1 0.02
0x4012d0 1 0.02
0x4012d8 1 0.02
0x4012e0 1 0.02
0x4012f8 1 0.02
0x401300 1 0.02
0x401308 1 0.02
0x401310 1 0.02
0x401318 1 0.02
0x401320 1 0.02
0x401330 1 0.02
0x401338 1 0.02
0x4016d0 1 0.02
0x4016d8 1 0.02
0x4016e0 1 0.02
0x4016e8 1 0.02
0x4016f0 1 0.02
0x4016f8 1 0.02
0x401700 1 0.02
0x401708 1 0.02
0x401710 1 0.02
0x401718 1 0.02
0x401720 1 0.02
0x401728 1 0.02
0x401730 1 0.02
0x401738 1 0.02
0x401740 1 0.02
0x401748 1 0.02
0x401750 1 0.02
0x401758 1 0.02
0x401760 1 0.02
0x401768 1 0.02
0x401770 1 0.02
0x401778 1 0.02
0x401780 1 0.02
0x401788 1 0.02
0x401790 1 0.02
0x401798 1 0.02
0x401880 1 0.02
0x401888 1 0.02
0x401890 1 0.02
0x401898 1 0.02
0x4018a0 1 0.02
0x4018a8 1 0.02
0x4018b0 1 0.02
0x4018c0 1 0.02
0x4018c8 1 0.02
0x4018d0 1 0.02
0x4018d8 1 0.02
0x4018e0 1 0.02
0x4018e8 1 0.02
0x4018f0 1 0.02
0x4018f8 1 0.02
0x401900 1 0.02
0x401908 1 0.02
0x401910 1 0.02
0x401918 1 0.02
0x401920 1 0.02
0x401928 1 0.02
0x401930 1 0.02
0x401938 1 0.02
0x401940 1 0.02
0x401bd8 1 0.02
0x401be0 1 0.02
0x401be8 1 0.02
0x401bf0 1 0.02
0x401bf8 1 0.02
0x401c00 1 0.02
0x401c08 1 0.02
0x401c10 1 0.02
0x401c20 4 0.07
0x401c28 4 0.07
0x401c30 4 0.07
0x401c38 4 0.07
0x401c40 4 0.07
0x401c48 4 0.07
0x401c50 4 0.07
0x401c58 1 0.02
0x401c60 1 0.02
0x401c68 1 0.02
0x401c70 1 0.02
0x401c78 1 0.02
0x401c80 1 0.02
0x401c88 3 0.05
0x401c90 3 0.05
0x401ca8 3 0.05
0x401cb0 3 0.05
0x401cb8 3 0.05
0x401cc0 3 0.05
0x401cc8 3 0.05
0x401cd0 3 0.05
0x401cd8 1 0.02
0x401ce0 1 0.02
0x401ce8 3 0.05
0x401cf0 3 0.05
0x401cf8 3 0.05
0x401d00 3 0.05
0x401d18 3 0.05
0x401d20 3 0.05
0x401d28 3 0.05
0x401d30 3 0.05
0x401d58 3 0.05
0x401d60 3 0.05
0x401d68 3 0.05
0x401d70 2 0.03
0x401d78 2 0.03
0x401d80 2 0.03
0x401d88 2 0.03
0x401d90 2 0.03
0x401da8 3 0.05
0x401db0 3 0.05
0x401db8 1 0.02
0x401dc0 1 0.02
0x401dc8 1 0.02
0x401dd0 1 0.02
0x401dd8 3 0.05
0x401de0 3 0.05
0x401de8 2 0.03
0x401df0 2 0.03
0x401df8 2 0.03
0x401e00 2 0.03
0x401e08 1 0.02
0x401e10 1 0.02
0x401e18 1 0.02
0x401e20 1 0.02
0x401e28 1 0.02
0x401e48 1 0.02
0x401e50 3 0.05
0x401e58 3 0.05
0x401e60 3 0.05
0x401e68 4 0.07
0x401e70 4 0.07
0x401e78 4 0.07
0x401e80 4 0.07
0x401e88 4 0.07
0x401e90 4 0.07
0x401ec0 1 0.02
0x401ec8 1 0.02
0x401ed0 1 0.02
0x401ed8 1 0.02
0x401f10 1 0.02
0x401f18 1 0.02
0x401f20 1 0.02
0x401f28 1 0.02
0x401f30 1 0.02
0x401f38 1 0.02
0x401f40 4 0.07
0x401f48 4 0.07
0x401f50 4 0.07
0x401f58 4 0.07
0x401f60 4 0.07
0x401f68 4 0.07
0x401f70 4 0.07
0x401f78 4 0.07
0x401f80 3 0.05
0x401f88 3 0.05
0x401f90 3 0.05
0x401f98 3 0.05
0x401fa0 3 0.05
0x401fa8 3 0.05
0x401fb0 1 0.02
0x401fb8 1 0.02
0x401fc0 1 0.02
0x401fc8 1 0.02
0x401fd0 1 0.02
0x401fd8 1 0.02
0x401fe0 1 0.02
0x401fe8 1 0.02
0x401ff0 1 0.02
0x401ff8 1 0.02
0x402000 1 0.02
0x402008 1 0.02
0x402048 1 0.02
0x402050 1 0.02
0x402058 1 0.02
0x402060 3 0.05
0x402068 3 0.05
0x402070 3 0.05
0x402078 3 0.05
0x402080 3 0.05
0x402088 3 0.05
0x402090 3 0.05
0x402098 3 0.05
0x4020a0 3 0.05
0x4020a8 3 0.05
0x4020b0 4 0.07
0x4020b8 4 0.07
0x4020c0 4 0.07
0x4020c8 4 0.07
0x4020d0 4 0.07
0x4020d8 4 0.07
0x4020e0 4 0.07
0x4020e8 4 0.07
0x4020f0 4 0.07
0x4020f8 4 0.07
0x402128 4 0.07
0x402130 4 0.07
0x402138 4 0.07
0x402140 390 6.53
0x402148 390 6.53
0x402150 390 6.53
0x402158 390 6.53
0x402160 390 6.53
0x402168 390 6.53
0x402170 390 6.53
0x402178 390 6.53
0x402180 390 6.53
0x402188 390 6.53
0x402190 390 6.53
0x402198 390 6.53
0x4021a0 4 0.07
0x4021a8 4 0.07
0x4021b0 4 0.07
0x4021b8 12 0.20
0x4021c0 12 0.20
0x4021c8 12 0.20
0x4021d0 12 0.20
0x4021d8 4 0.07
0x4021e0 4 0.07
0x402208 4 0.07
0x402210 4 0.07
0x4023e0 1 0.02
0x4023e8 1 0.02
0x4023f0 1 0.02
0x4023f8 1 0.02
0x402400 1 0.02
0x402408 1 0.02
0x402410 1 0.02
0x402418 1 0.02
0x402420 1 0.02
0x402428 1 0.02
0x402438 1 0.02
0x402440 1 0.02
0x402448 1 0.02
0x402450 1 0.02
0x402458 1 0.02
0x402460 1 0.02
0x402468 1 0.02
0x402470 1 0.02
0x402478 1 0.02
0x402480 1 0.02
0x402488 1 0.02
0x402490 1 0.02
0x402498 1 0.02
0x4024a0 1 0.02
0x4024a8 1 0.02
0x4024b0 1 0.02
0x4024b8 1 0.02
0x4024c0 1 0.02
0x4024c8 1 0.02
0x4024d0 1 0.02
0x4024d8 1 0.02
0x4024e0 1 0.02
0x4024e8 1 0.02
0x4024f0 1 0.02
0x4024f8 1 0.02
0x402548 1 0.02
0x402550 1 0.02
0x402558 1 0.02
0x402560 1 0.02
0x402568 1 0.02
0x402570 1 0.02
0x402578 1 0.02
0x402590 1 0.02
0x402598 1 0.02
0x4025a0 1 0.02
0x4025a8 1 0.02
0x4025b0 1 0.02
0x4025b8 1 0.02
0x4025c0 1 0.02
0x4025c8 1 0.02
0x4025d0 1 0.02
0x4025d8 1 0.02
0x4025e0 1 0.02
0x4025e8 1 0.02
0x4025f0 1 0.02
0x402640 1 0.02
0x402648 1 0.02
0x402650 1 0.02
0x402658 1 0.02
0x402660 1 0.02
0x402668 1 0.02
0x402670 1 0.02
0x402678 1 0.02
0x402680 1 0.02
0x402688 1 0.02
0x402690 1 0.02
0x402698 1 0.02
0x4026a0 1 0.02
0x4026a8 1 0.02
0x4026b0 1 0.02
0x4026b8 1 0.02
0x4026c0 1 0.02
0x4026c8 1 0.02
0x4026d0 1 0.02
0x4026d8 1 0.02
0x4026e0 1 0.02
0x4026e8 1 0.02
0x4026f0 1 0.02
0x4026f8 1 0.02
0x402700 1 0.02
0x402708 1 0.02
0x402710 1 0.02
0x402718 1 0.02
0x4027d0 1 0.02
0x4027d8 1 0.02
0x4027e0 1 0.02
0x4027e8 1 0.02
0x4027f0 1 0.02
0x402940 1 0.02
0x402948 1 0.02
0x402c58 1 0.02
0x402c60 1 0.02
0x402c68 1 0.02
0x402c70 1 0.02
0x402c78 1 0.02
0x402c80 1 0.02
0x402c88 1 0.02
0x402c90 1 0.02
0x402c98 1 0.02
0x402ca0 1 0.02
0x402ca8 1 0.02
0x402cb0 1 0.02
0x402cd8 1 0.02
0x402ce0 1 0.02
0x402d10 1 0.02
0x402d18 1 0.02
0x402d20 1 0.02
0x402d28 1 0.02
0x403158 2 0.03
0x403160 2 0.03
0x403168 2 0.03
0x403170 2 0.03
0x403178 2 0.03
0x403180 2 0.03
0x403188 2 0.03
0x403190 2 0.03
0x403198 2 0.03
0x4031a0 2 0.03
0x4031a8 2 0.03
0x4031b0 2 0.03
0x4031b8 2 0.03
0x4031c0 2 0.03
0x4031c8 2 0.03
0x4031d0 2 0.03
0x4031d8 2 0.03
0x4031e0 2 0.03
0x4031e8 2 0.03
0x4031f0 2 0.03
0x4031f8 2 0.03
0x403200 2 0.03
0x403208 2 0.03
0x403210 2 0.03
0x403218 2 0.03
0x403220 2 0.03
0x403228 2 0.03
0x403230 2 0.03
0x4033e8 2 0.03
0x4033f0 2 0.03
0x4033f8 1 0.02
0x403400 1 0.02
0x403408 1 0.02
0x403410 1 0.02
0x403418 1 0.02
0x403420 1 0.02
0x403428 1 0.02
0x403490 2 0.03
0x403498 2 0.03
0x4034a0 2 0.03
0x4034a8 2 0.03
0x4034e0 2 0.03
0x4034e8 2 0.03
0x4034f0 2 0.03
0x4034f8 2 0.03
0x403500 2 0.03
0x403508 2 0.03
0x403510 2 0.03
0x403518 2 0.03
0x403520 2 0.03
0x403528 2 0.03
0x403530 2 0.03
0x403830 2 0.03
0x403838 2 0.03
0x403840 2 0.03
0x403848 2 0.03
0x403850 2 0.03
0x403858 2 0.03
0x403860 2 0.03
0x403868 2 0.03
0x403870 2 0.03
0x403888 2 0.03
0x403890 2 0.03
0x403898 2 0.03
0x4038a0 2 0.03
0x4038a8 2 0.03
0x4038b0 2 0.03
0x4038b8 2 0.03
0x4038c0 2 0.03
0x4038c8 2 0.03
0x4038d0 2 0.03
0x4038d8 2 0.03
0x403d70 2 0.03
0x403d78 2 0.03
0x403d80 2 0.03
0x403d88 2 0.03
0x403d90 2 0.03
0x403d98 2 0.03
0x403da0 2 0.03
0x403da8 2 0.03
0x403db0 2 0.03
0x403db8 2 0.03
0x403dc0 2 0.03
0x403dc8 2 0.03
0x403dd0 2 0.03
0x403dd8 2 0.03
0x403de0 2 0.03
0x403df8 2 0.03
0x403e00 2 0.03
0x403e08 2 0.03
0x403e10 2 0.03
0x403e18 2 0.03
0x403e20 2 0.03
0x403e28 2 0.03
0x403e50 2 0.03
0x403e58 2 0.03
0x403e60 2 0.03
0x403e68 2 0.03
0x403e70 2 0.03
0x403ea8 2 0.03
0x403eb0 2 0.03
0x403eb8 2 0.03
0x403ec0 2 0.03
0x403ec8 2 0.03
0x403ed0 2 0.03
0x403ed8 2 0.03
0x403ee0 2 0.03
0x403ee8 2 0.03
0x403ef0 2 0.03
0x403ef8 2 0.03
0x403f00 2 0.03
0x403f08 2 0.03
0x403f10 2 0.03
0x403f18 2 0.03
0x403f20 2 0.03
0x403f28 2 0.03
0x403f30 2 0.03
0x403f38 2 0.03
0x403f40 2 0.03
0x403f48 2 0.03
0x403f50 2 0.03
0x403f58 2 0.03
0x403f60 2 0.03
0x403f68 2 0.03
0x403f70 2 0.03
0x403f78 2 0.03
0x403f80 2 0.03
0x403f88 2 0.03
0x403f90 2 0.03
0x403f98 1 0.02
0x403fa0 1 0.02
0x403fb8 1 0.02
0x403fc0 1 0.02
0x403fc8 1 0.02
0x403fd0 1 0.02
0x403fd8 1 0.02
0x403fe0 1 0.02
0x403fe8 1 0.02
0x404020 1 0.02
0x404028 1 0.02
0x404030 1 0.02
0x404058 2 0.03
0x404060 2 0.03
0x404068 2 0.03
0x404070 2 0.03
0x404078 2 0.03
0x404080 2 0.03
0x404088 2 0.03
0x404090 2 0.03
0x404098 2 0.03
0x4040c8 2 0.03
0x404190 2 0.03
0x404198 2 0.03
0x4041a0 2 0.03
0x4041c8 2 0.03
0x4041d0 2 0.03
0x4041e0 2 0.03
0x4041e8 2 0.03
0x4041f0 2 0.03
0x4041f8 2 0.03
0x404200 2 0.03
0x404208 2 0.03
0x404238 2 0.03
0x404240 2 0.03
0x404248 2 0.03
0x404250 2 0.03
0x404268 2 0.03
0x404270 2 0.03
0x404278 2 0.03
0x404280 2 0.03
0x404288 2 0.03
0x404290 2 0.03
0x404298 2 0.03
0x4042a0 2 0.03
0x404838 3 0.05
0x404840 3 0.05
0x404848 3 0.05
0x404850 3 0.05
0x404858 3 0.05
0x404860 3 0.05
0x404868 3 0.05
0x404870 3 0.05
0x404878 3 0.05
0x404880 3 0.05
0x404888 3 0.05
0x404890 3 0.05
0x404898 3 0.05
0x4048a0 3 0.05
0x4048a8 3 0.05
0x404a50 2 0.03
0x404a58 2 0.03
0x404a60 2 0.03
0x404a68 2 0.03
0x404a70 2 0.03
0x404a78 2 0.03
0x404ef0 3 0.05
0x404ef8 3 0.05
0x404f00 3 0.05
0x404f08 3 0.05
0x404f20 3 0.05
0x404f28 3 0.05
0x404f30 3 0.05
0x404f38 3 0.05
0x404f40 3 0.05
0x404f48 3 0.05
0x404f50 3 0.05
0x404f58 3 0.05
0x404f60 3 0.05
0x404f68 3 0.05
0x404f70 3 0.05
0x4057d0 2 0.03
0x4057d8 2 0.03
0x4057e0 2 0.03
0x4057e8 2 0.03
0x4057f0 2 0.03
0x4057f8 2 0.03
0x405800 2 0.03
0x405808 2 0.03
0x405810 2 0.03
0x405818 2 0.03
0x405820 2 0.03
0x405828 1 0.02
0x405830 1 0.02
0x405838 1 0.02
0x405840 1 0.02
0x405848 1 0.02
0x405850 1 0.02
0x405858 1 0.02
0x405860 1 0.02
0x405888 1 0.02
0x405890 1 0.02
0x4058d0 1 0.02
0x4058d8 1 0.02
0x4058e0 2 0.03
0x4058e8 2 0.03
0x4058f0 2 0.03
0x4058f8 2 0.03
0x405900 2 0.03
0x4059e0 2 0.03
0x4059e8 2 0.03
0x4059f0 2 0.03
0x4059f8 2 0.03
0x405a00 2 0.03
0x405a90 3 0.05
0x405a98 3 0.05
0x405aa0 3 0.05
0x405ab0 3 0.05
0x405ab8 3 0.05
0x405ac0 3 0.05
0x405ac8 3 0.05
0x405ad0 3 0.05
0x405ad8 3 0.05
0x405b00 1 0.02
0x405b08 1 0.02
0x405b10 1 0.02
0x405b18 1 0.02
0x405b20 1 0.02
sim_num_insn_by_pc.end_dist

ld_text_base             0x00400000 # program text (code) segment base
ld_text_size                  23648 # program text (code) size in bytes
ld_data_base             0x10000000 # program initialized data segment base
ld_data_size                   4096 # program init'ed `.data' and uninit'ed `.bss' size in bytes
ld_stack_base            0x7fffc000 # program stack segment base (highest address in stack)
ld_stack_size                 16384 # program initial stack size
ld_prog_entry            0x00400140 # program entry point (initial PC)
ld_environ_base          0x7fff8000 # program environment base address address
ld_target_big_endian              0 # target executable endian-ness, non-zero if big endian
mem.page_count                   12 # total number of pages allocated
mem.page_mem                    48k # total size of memory pages allocated
mem.ptab_misses                  12 # total first level page table misses
mem.ptab_accesses            180722 # total page table accesses
mem.ptab_miss_rate           0.0001 # first level page table miss rate

+--------------------------------------------------------------+
| effective code range:         [0, fffffff8]                  |
| effective bpred count:        0                              |
| effective sim cycles:         0                              |
| effective bpred misses:       0                              |
| effective icache misses:      0                              |
+--------------------------------------------------------------+

