sim-profile: SimpleScalar/PISA Tool Set version 3.0 of August, 2003.
Copyright (c) 1994-2003 by Todd M. Austin, Ph.D. and SimpleScalar, LLC.
All Rights Reserved. This version of SimpleScalar is licensed for academic
non-commercial use.  No portion of this work may be used by any commercial
entity, or for any commercial purpose, without the prior written permission
of SimpleScalar, LLC (info@simplescalar.com).

sim: command line: /home/sudiptac/sudiptac/Work/simplesim-3.0/sim-profile -pcstat sim_num_insn ndes 

sim: simulation started @ Thu Aug 18 20:14:08 2011, options follow:

sim-profile: This simulator implements a functional simulator with
profiling support.  Run with the `-h' flag to see profiling options
available.

# -config                     # load configuration from a file
# -dumpconfig                 # dump configuration to a file
# -h                    false # print help message    
# -v                    false # verbose operation     
# -d                    false # enable debug message  
# -i                    false # start in Dlite debugger
-seed                       1 # random number generator seed (0 for timer seed)
# -q                    false # initialize and terminate immediately
# -chkpt               <null> # restore EIO trace execution from <fname>
# -redir:sim           <null> # redirect simulator output to file (non-interactive only)
# -redir:prog          <null> # redirect simulated target_name output to file
-nice                       0 # simulator scheduling priority
-max:inst                   0 # maximum number of inst's to execute
-all                    false # enable all profile options
-iclass                 false # enable instruction class profiling
-iprof                  false # enable instruction profiling
-brprof                 false # enable branch instruction profiling
-amprof                 false # enable address mode profiling
-segprof                false # enable load/store address segment profiling
-tsymprof               false # enable text symbol profiling
-taddrprof              false # enable text address profiling
-dsymprof               false # enable data symbol profiling
-internal               false # include compiler-internal symbols during symbol profiling
# -pcstat        sim_num_insn # profile stat(s) against text addr's (mult uses ok)

sim: ** starting functional simulation **

sim: ** simulation statistics **
sim_num_insn                  56030 # total number of instructions executed
sim_num_refs                  19143 # total number of loads and stores executed
sim_elapsed_time                  1 # total simulation time in seconds
sim_inst_rate            56030.0000 # simulation speed (in insts/sec)

sim_num_insn_by_pc     # total number of instructions executed (by text address)
sim_num_insn_by_pc.count = 1240
sim_num_insn_by_pc.total = 56029
sim_num_insn_by_pc.imin = 0x400140
sim_num_insn_by_pc.imax = 0x4064a0
sim_num_insn_by_pc.average =  45.1847
sim_num_insn_by_pc.std_dev = 118.9240
sim_num_insn_by_pc.overflows = 0
# pdf == prob dist fn, cdf == cumulative dist fn
#          index      count    pdf 
sim_num_insn_by_pc.start_dist
0x400140 1 0.00
0x400148 1 0.00
0x400150 1 0.00
0x400158 1 0.00
0x400160 1 0.00
0x400168 1 0.00
0x400170 1 0.00
0x400178 1 0.00
0x400180 1 0.00
0x400188 1 0.00
0x400190 1 0.00
0x400198 1 0.00
0x4001a0 1 0.00
0x4001a8 1 0.00
0x4001b0 1 0.00
0x4001b8 1 0.00
0x4001c0 1 0.00
0x4001c8 1 0.00
0x4001d0 1 0.00
0x4001d8 1 0.00
0x4001e0 1 0.00
0x4001f0 952 1.70
0x4001f8 952 1.70
0x400200 952 1.70
0x400208 952 1.70
0x400210 476 0.85
0x400218 476 0.85
0x400220 476 0.85
0x400228 476 0.85
0x400230 476 0.85
0x400238 476 0.85
0x400240 476 0.85
0x400248 476 0.85
0x400250 476 0.85
0x400258 476 0.85
0x400260 476 0.85
0x400268 476 0.85
0x400270 952 1.70
0x400278 952 1.70
0x400280 1 0.00
0x400288 1 0.00
0x400290 1 0.00
0x400298 1 0.00
0x4002a0 1 0.00
0x4002a8 1 0.00
0x4002b0 1 0.00
0x4002b8 1 0.00
0x4002c0 1 0.00
0x4002c8 1 0.00
0x4002d0 1 0.00
0x4002d8 1 0.00
0x4002e0 1 0.00
0x4002e8 1 0.00
0x4002f0 1 0.00
0x4002f8 1 0.00
0x400300 1 0.00
0x400308 1 0.00
0x400310 1 0.00
0x400318 1 0.00
0x400320 1 0.00
0x400328 1 0.00
0x400330 1 0.00
0x400338 1 0.00
0x400340 1 0.00
0x400348 31 0.06
0x400350 31 0.06
0x400358 31 0.06
0x400360 31 0.06
0x400368 31 0.06
0x400370 31 0.06
0x400378 1 0.00
0x400380 1 0.00
0x400388 1 0.00
0x400390 1 0.00
0x400398 1 0.00
0x4003a0 1 0.00
0x4003a8 1 0.00
0x4003b0 1 0.00
0x4003b8 1 0.00
0x4003c0 28 0.05
0x4003c8 28 0.05
0x4003d0 28 0.05
0x4003d8 28 0.05
0x4003e0 28 0.05
0x4003e8 28 0.05
0x4003f0 28 0.05
0x4003f8 28 0.05
0x400400 28 0.05
0x400408 28 0.05
0x400410 28 0.05
0x400418 28 0.05
0x400420 28 0.05
0x400428 28 0.05
0x400430 28 0.05
0x400438 28 0.05
0x400440 28 0.05
0x400448 28 0.05
0x400450 28 0.05
0x400458 28 0.05
0x400460 28 0.05
0x400468 28 0.05
0x400470 28 0.05
0x400478 28 0.05
0x400480 28 0.05
0x400488 28 0.05
0x400490 1 0.00
0x400498 1 0.00
0x4004a0 1 0.00
0x4004a8 16 0.03
0x4004b0 16 0.03
0x4004b8 16 0.03
0x4004c0 16 0.03
0x4004c8 16 0.03
0x4004d0 16 0.03
0x4004d8 16 0.03
0x4004e0 16 0.03
0x4004e8 16 0.03
0x4004f0 16 0.03
0x4004f8 16 0.03
0x400500 16 0.03
0x400508 16 0.03
0x400510 16 0.03
0x400518 16 0.03
0x400520 16 0.03
0x400528 16 0.03
0x400530 16 0.03
0x400538 16 0.03
0x400540 1 0.00
0x400548 1 0.00
0x400550 1 0.00
0x400558 1 0.00
0x400560 32 0.06
0x400568 32 0.06
0x400570 32 0.06
0x400578 32 0.06
0x400580 32 0.06
0x400588 32 0.06
0x400590 32 0.06
0x400598 32 0.06
0x4005a0 32 0.06
0x4005a8 32 0.06
0x4005b0 32 0.06
0x4005b8 32 0.06
0x4005c0 32 0.06
0x4005c8 32 0.06
0x4005d0 32 0.06
0x4005d8 32 0.06
0x4005e0 32 0.06
0x4005e8 32 0.06
0x4005f0 32 0.06
0x4005f8 32 0.06
0x400600 32 0.06
0x400608 32 0.06
0x400610 32 0.06
0x400618 32 0.06
0x400620 32 0.06
0x400628 32 0.06
0x400630 1 0.00
0x400638 1 0.00
0x400640 1 0.00
0x400648 1 0.00
0x400650 1 0.00
0x400658 1 0.00
0x400660 16 0.03
0x400668 16 0.03
0x400670 16 0.03
0x400678 16 0.03
0x400680 16 0.03
0x400688 16 0.03
0x400690 16 0.03
0x400698 16 0.03
0x4006a0 16 0.03
0x4006a8 16 0.03
0x4006b0 16 0.03
0x4006b8 16 0.03
0x4006c0 16 0.03
0x4006c8 16 0.03
0x4006d0 16 0.03
0x4006d8 16 0.03
0x4006e0 16 0.03
0x4006e8 16 0.03
0x4006f0 16 0.03
0x4006f8 16 0.03
0x400700 16 0.03
0x400708 16 0.03
0x400710 16 0.03
0x400718 1 0.00
0x400720 1 0.00
0x400728 1 0.00
0x400730 1 0.00
0x400738 1 0.00
0x400740 1 0.00
0x400748 1 0.00
0x400750 32 0.06
0x400758 32 0.06
0x400760 32 0.06
0x400768 32 0.06
0x400770 32 0.06
0x400778 32 0.06
0x400780 32 0.06
0x400788 32 0.06
0x400790 32 0.06
0x400798 32 0.06
0x4007a0 32 0.06
0x4007a8 32 0.06
0x4007b0 32 0.06
0x4007b8 32 0.06
0x4007c0 32 0.06
0x4007c8 32 0.06
0x4007d0 32 0.06
0x4007d8 32 0.06
0x4007e0 32 0.06
0x4007e8 32 0.06
0x4007f0 32 0.06
0x4007f8 32 0.06
0x400800 32 0.06
0x400808 32 0.06
0x400810 32 0.06
0x400818 1 0.00
0x400820 1 0.00
0x400828 1 0.00
0x400830 1 0.00
0x400838 1 0.00
0x400840 1 0.00
0x400848 1 0.00
0x400850 1 0.00
0x400858 1 0.00
0x400860 1 0.00
0x400868 16 0.03
0x400870 16 0.03
0x400878 16 0.03
0x400880 16 0.03
0x400888 16 0.03
0x400890 16 0.03
0x400898 16 0.03
0x4008a0 16 0.03
0x4008a8 16 0.03
0x4008b0 16 0.03
0x4008b8 16 0.03
0x4008c0 14 0.02
0x4008c8 14 0.02
0x4008d0 13 0.02
0x4008d8 13 0.02
0x4008e0 4 0.01
0x4008e8 4 0.01
0x4008f0 4 0.01
0x4008f8 4 0.01
0x400900 4 0.01
0x400908 4 0.01
0x400910 4 0.01
0x400918 4 0.01
0x400920 4 0.01
0x400928 4 0.01
0x400930 4 0.01
0x400938 4 0.01
0x400940 4 0.01
0x400948 4 0.01
0x400950 12 0.02
0x400958 12 0.02
0x400960 24 0.04
0x400968 24 0.04
0x400970 24 0.04
0x400978 24 0.04
0x400980 24 0.04
0x400988 24 0.04
0x400990 24 0.04
0x400998 24 0.04
0x4009a0 24 0.04
0x4009a8 24 0.04
0x4009b0 24 0.04
0x4009b8 24 0.04
0x4009c0 24 0.04
0x4009c8 24 0.04
0x4009d0 24 0.04
0x4009d8 16 0.03
0x4009e0 16 0.03
0x4009e8 16 0.03
0x4009f0 16 0.03
0x4009f8 16 0.03
0x400a00 16 0.03
0x400a08 16 0.03
0x400a10 256 0.46
0x400a18 256 0.46
0x400a20 256 0.46
0x400a28 256 0.46
0x400a30 256 0.46
0x400a38 256 0.46
0x400a40 256 0.46
0x400a48 256 0.46
0x400a50 256 0.46
0x400a58 256 0.46
0x400a60 256 0.46
0x400a68 256 0.46
0x400a70 256 0.46
0x400a78 256 0.46
0x400a80 256 0.46
0x400a88 256 0.46
0x400a90 256 0.46
0x400a98 256 0.46
0x400aa0 256 0.46
0x400aa8 256 0.46
0x400ab0 256 0.46
0x400ab8 256 0.46
0x400ac0 256 0.46
0x400ac8 256 0.46
0x400ad0 256 0.46
0x400ad8 256 0.46
0x400ae0 256 0.46
0x400ae8 256 0.46
0x400af0 256 0.46
0x400af8 256 0.46
0x400b00 256 0.46
0x400b08 256 0.46
0x400b10 256 0.46
0x400b18 256 0.46
0x400b20 256 0.46
0x400b28 256 0.46
0x400b30 256 0.46
0x400b38 256 0.46
0x400b40 256 0.46
0x400b48 256 0.46
0x400b50 16 0.03
0x400b58 16 0.03
0x400b60 16 0.03
0x400b68 16 0.03
0x400b70 16 0.03
0x400b78 16 0.03
0x400b80 16 0.03
0x400b88 16 0.03
0x400b90 16 0.03
0x400b98 16 0.03
0x400ba0 16 0.03
0x400ba8 16 0.03
0x400bb0 16 0.03
0x400bb8 16 0.03
0x400bc0 16 0.03
0x400bc8 16 0.03
0x400bd0 16 0.03
0x400bd8 16 0.03
0x400be0 16 0.03
0x400be8 16 0.03
0x400bf0 16 0.03
0x400bf8 16 0.03
0x400c00 256 0.46
0x400c08 256 0.46
0x400c10 256 0.46
0x400c18 256 0.46
0x400c20 256 0.46
0x400c28 256 0.46
0x400c30 256 0.46
0x400c38 256 0.46
0x400c40 256 0.46
0x400c48 256 0.46
0x400c50 256 0.46
0x400c58 256 0.46
0x400c60 256 0.46
0x400c68 256 0.46
0x400c70 256 0.46
0x400c78 256 0.46
0x400c80 256 0.46
0x400c88 256 0.46
0x400c90 256 0.46
0x400c98 256 0.46
0x400ca0 256 0.46
0x400ca8 256 0.46
0x400cb0 256 0.46
0x400cb8 256 0.46
0x400cc0 256 0.46
0x400cc8 256 0.46
0x400cd0 256 0.46
0x400cd8 256 0.46
0x400ce0 256 0.46
0x400ce8 256 0.46
0x400cf0 256 0.46
0x400cf8 256 0.46
0x400d00 256 0.46
0x400d08 256 0.46
0x400d10 256 0.46
0x400d18 256 0.46
0x400d20 256 0.46
0x400d28 256 0.46
0x400d30 256 0.46
0x400d38 256 0.46
0x400d40 256 0.46
0x400d48 256 0.46
0x400d50 256 0.46
0x400d58 16 0.03
0x400d60 16 0.03
0x400d68 16 0.03
0x400d70 16 0.03
0x400d78 16 0.03
0x400d80 16 0.03
0x400d88 16 0.03
0x400d90 16 0.03
0x400d98 16 0.03
0x400da0 16 0.03
0x400da8 16 0.03
0x400db0 16 0.03
0x400db8 16 0.03
0x400dc0 16 0.03
0x400dc8 16 0.03
0x400dd0 16 0.03
0x400dd8 16 0.03
0x400de0 64 0.11
0x400de8 64 0.11
0x400df0 64 0.11
0x400df8 64 0.11
0x400e00 64 0.11
0x400e08 64 0.11
0x400e10 64 0.11
0x400e18 64 0.11
0x400e20 64 0.11
0x400e28 64 0.11
0x400e30 16 0.03
0x400e38 16 0.03
0x400e40 16 0.03
0x400e48 16 0.03
0x400e50 16 0.03
0x400e58 128 0.23
0x400e60 128 0.23
0x400e68 128 0.23
0x400e70 128 0.23
0x400e78 128 0.23
0x400e80 128 0.23
0x400e88 128 0.23
0x400e90 128 0.23
0x400e98 128 0.23
0x400ea0 128 0.23
0x400ea8 128 0.23
0x400eb0 128 0.23
0x400eb8 128 0.23
0x400ec0 128 0.23
0x400ec8 128 0.23
0x400ed0 128 0.23
0x400ed8 128 0.23
0x400ee0 128 0.23
0x400ee8 128 0.23
0x400ef0 128 0.23
0x400ef8 128 0.23
0x400f00 128 0.23
0x400f08 128 0.23
0x400f10 128 0.23
0x400f18 128 0.23
0x400f20 128 0.23
0x400f28 128 0.23
0x400f30 128 0.23
0x400f38 128 0.23
0x400f40 128 0.23
0x400f48 128 0.23
0x400f50 128 0.23
0x400f58 128 0.23
0x400f60 16 0.03
0x400f68 16 0.03
0x400f70 16 0.03
0x400f78 16 0.03
0x400f80 512 0.91
0x400f88 512 0.91
0x400f90 512 0.91
0x400f98 512 0.91
0x400fa0 512 0.91
0x400fa8 512 0.91
0x400fb0 512 0.91
0x400fb8 512 0.91
0x400fc0 512 0.91
0x400fc8 512 0.91
0x400fd0 512 0.91
0x400fd8 512 0.91
0x400fe0 512 0.91
0x400fe8 512 0.91
0x400ff0 512 0.91
0x400ff8 16 0.03
0x401000 16 0.03
0x401008 1 0.00
0x401010 1 0.00
0x401018 1 0.00
0x401020 1 0.00
0x401028 1 0.00
0x401030 1 0.00
0x401038 1 0.00
0x401040 1 0.00
0x401048 1 0.00
0x401050 1 0.00
0x401058 1 0.00
0x401060 1 0.00
0x401068 1 0.00
0x401070 1 0.00
0x401078 1 0.00
0x401080 1 0.00
0x401088 1 0.00
0x401090 1 0.00
0x401098 1 0.00
0x4010a0 1 0.00
0x4010a8 1 0.00
0x4010b0 1 0.00
0x4010b8 1 0.00
0x4010c0 1 0.00
0x4010c8 1 0.00
0x4010d0 1 0.00
0x4010e0 1 0.00
0x4010e8 1 0.00
0x4010f0 1 0.00
0x4010f8 1 0.00
0x401100 1 0.00
0x401108 1 0.00
0x401110 1 0.00
0x401118 1 0.00
0x401120 1 0.00
0x401128 1 0.00
0x401130 1 0.00
0x401138 1 0.00
0x401140 1 0.00
0x401148 1 0.00
0x401150 1 0.00
0x401158 1 0.00
0x401160 1 0.00
0x401168 1 0.00
0x401170 1 0.00
0x401178 1 0.00
0x401180 1 0.00
0x401188 1 0.00
0x401190 1 0.00
0x401240 1 0.00
0x401248 1 0.00
0x401250 1 0.00
0x401258 1 0.00
0x401260 1 0.00
0x4012b0 1 0.00
0x4012b8 1 0.00
0x4012c0 1 0.00
0x4012c8 1 0.00
0x4012d0 1 0.00
0x4012d8 1 0.00
0x4012e0 1 0.00
0x4012e8 1 0.00
0x4012f0 1 0.00
0x4012f8 1 0.00
0x401300 1 0.00
0x401308 1 0.00
0x401318 1 0.00
0x401320 1 0.00
0x401328 1 0.00
0x401330 1 0.00
0x401338 1 0.00
0x401550 1 0.00
0x401558 1 0.00
0x401560 1 0.00
0x401568 1 0.00
0x401570 1 0.00
0x401578 1 0.00
0x401580 1 0.00
0x4015a0 1 0.00
0x4015c0 1 0.00
0x4015c8 1 0.00
0x4015d0 1 0.00
0x4015d8 1 0.00
0x4015e0 1 0.00
0x4015e8 1 0.00
0x401608 1 0.00
0x401610 1 0.00
0x401618 1 0.00
0x401620 1 0.00
0x401640 1 0.00
0x401648 1 0.00
0x401650 1 0.00
0x401658 1 0.00
0x401660 1 0.00
0x401668 1 0.00
0x401670 1 0.00
0x401678 1 0.00
0x401680 1 0.00
0x401688 1 0.00
0x401690 1 0.00
0x401698 1 0.00
0x4016a0 1 0.00
0x4016a8 1 0.00
0x4016b0 1 0.00
0x4016b8 1 0.00
0x4016c0 1 0.00
0x4016c8 1 0.00
0x4016d0 1 0.00
0x4016d8 1 0.00
0x4016e0 1 0.00
0x4016e8 1 0.00
0x4016f0 1 0.00
0x4016f8 1 0.00
0x401708 1 0.00
0x401710 1 0.00
0x401718 1 0.00
0x401720 1 0.00
0x401728 1 0.00
0x401730 1 0.00
0x401738 1 0.00
0x401740 1 0.00
0x401748 1 0.00
0x401750 1 0.00
0x401758 1 0.00
0x401760 1 0.00
0x401768 1 0.00
0x401770 1 0.00
0x401778 1 0.00
0x401780 1 0.00
0x401788 1 0.00
0x401790 1 0.00
0x401798 1 0.00
0x4017a0 1 0.00
0x4017a8 1 0.00
0x4017b0 1 0.00
0x4017b8 1 0.00
0x4017c0 1 0.00
0x4017c8 1 0.00
0x4017d8 1 0.00
0x4017e0 1 0.00
0x4017e8 1 0.00
0x4017f0 1 0.00
0x4017f8 1 0.00
0x401800 1 0.00
0x401808 1 0.00
0x401810 1 0.00
0x401818 1 0.00
0x401820 1 0.00
0x401828 1 0.00
0x401830 1 0.00
0x401838 1 0.00
0x401840 1 0.00
0x401848 1 0.00
0x401850 1 0.00
0x401858 1 0.00
0x401888 1 0.00
0x401890 1 0.00
0x4018a0 1 0.00
0x4018a8 1 0.00
0x4018c0 1 0.00
0x4018c8 1 0.00
0x4018d0 1 0.00
0x4018d8 1 0.00
0x4018e8 1 0.00
0x4018f0 1 0.00
0x4018f8 1 0.00
0x401900 1 0.00
0x401908 1 0.00
0x401b90 1 0.00
0x401b98 1 0.00
0x401ba0 1 0.00
0x401ba8 1 0.00
0x401bb8 1 0.00
0x401bc0 1 0.00
0x401bc8 1 0.00
0x401bd0 1 0.00
0x401bd8 1 0.00
0x401be0 1 0.00
0x401be8 1 0.00
0x401bf0 1 0.00
0x401bf8 1 0.00
0x401c00 1 0.00
0x401c08 1 0.00
0x401c10 1 0.00
0x401c18 1 0.00
0x401c20 1 0.00
0x401c28 1 0.00
0x401c30 1 0.00
0x401c38 1 0.00
0x401c40 1 0.00
0x401c48 1 0.00
0x401c50 1 0.00
0x401c58 1 0.00
0x401c60 1 0.00
0x401c78 1 0.00
0x401c80 1 0.00
0x401c88 1 0.00
0x401c90 1 0.00
0x401c98 1 0.00
0x401ca0 1 0.00
0x401cb0 1 0.00
0x401cb8 1 0.00
0x402050 1 0.00
0x402058 1 0.00
0x402060 1 0.00
0x402068 1 0.00
0x402070 1 0.00
0x402078 1 0.00
0x402080 1 0.00
0x402088 1 0.00
0x402090 1 0.00
0x402098 1 0.00
0x4020a0 1 0.00
0x4020a8 1 0.00
0x4020b0 1 0.00
0x4020b8 1 0.00
0x4020c0 1 0.00
0x4020c8 1 0.00
0x4020d0 1 0.00
0x4020d8 1 0.00
0x4020e0 1 0.00
0x4020e8 1 0.00
0x4020f0 1 0.00
0x4020f8 1 0.00
0x402100 1 0.00
0x402108 1 0.00
0x402110 1 0.00
0x402118 1 0.00
0x402200 1 0.00
0x402208 1 0.00
0x402210 1 0.00
0x402218 1 0.00
0x402220 1 0.00
0x402228 1 0.00
0x402230 1 0.00
0x402240 1 0.00
0x402248 1 0.00
0x402250 1 0.00
0x402258 1 0.00
0x402260 1 0.00
0x402268 1 0.00
0x402270 1 0.00
0x402278 1 0.00
0x402280 1 0.00
0x402288 1 0.00
0x402290 1 0.00
0x402298 1 0.00
0x4022a0 1 0.00
0x4022a8 1 0.00
0x4022b0 1 0.00
0x4022b8 1 0.00
0x4022c0 1 0.00
0x402558 1 0.00
0x402560 1 0.00
0x402568 1 0.00
0x402570 1 0.00
0x402578 1 0.00
0x402580 1 0.00
0x402588 1 0.00
0x402590 1 0.00
0x4025a0 4 0.01
0x4025a8 4 0.01
0x4025b0 4 0.01
0x4025b8 4 0.01
0x4025c0 4 0.01
0x4025c8 4 0.01
0x4025d0 4 0.01
0x4025d8 1 0.00
0x4025e0 1 0.00
0x4025e8 1 0.00
0x4025f0 1 0.00
0x4025f8 1 0.00
0x402600 1 0.00
0x402608 3 0.01
0x402610 3 0.01
0x402628 3 0.01
0x402630 3 0.01
0x402638 3 0.01
0x402640 3 0.01
0x402648 3 0.01
0x402650 3 0.01
0x402658 1 0.00
0x402660 1 0.00
0x402668 3 0.01
0x402670 3 0.01
0x402678 3 0.01
0x402680 3 0.01
0x402698 3 0.01
0x4026a0 3 0.01
0x4026a8 3 0.01
0x4026b0 3 0.01
0x4026d8 3 0.01
0x4026e0 3 0.01
0x4026e8 3 0.01
0x4026f0 2 0.00
0x4026f8 2 0.00
0x402700 2 0.00
0x402708 2 0.00
0x402710 2 0.00
0x402728 3 0.01
0x402730 3 0.01
0x402738 1 0.00
0x402740 1 0.00
0x402748 1 0.00
0x402750 1 0.00
0x402758 3 0.01
0x402760 3 0.01
0x402768 2 0.00
0x402770 2 0.00
0x402778 2 0.00
0x402780 2 0.00
0x402788 1 0.00
0x402790 1 0.00
0x402798 1 0.00
0x4027a0 1 0.00
0x4027a8 1 0.00
0x4027c8 1 0.00
0x4027d0 3 0.01
0x4027d8 3 0.01
0x4027e0 3 0.01
0x4027e8 4 0.01
0x4027f0 4 0.01
0x4027f8 4 0.01
0x402800 4 0.01
0x402808 4 0.01
0x402810 4 0.01
0x402840 1 0.00
0x402848 1 0.00
0x402850 1 0.00
0x402858 1 0.00
0x402890 1 0.00
0x402898 1 0.00
0x4028a0 1 0.00
0x4028a8 1 0.00
0x4028b0 1 0.00
0x4028b8 1 0.00
0x4028c0 2 0.00
0x4028c8 2 0.00
0x4028d0 2 0.00
0x4028d8 2 0.00
0x4028e0 2 0.00
0x4028e8 2 0.00
0x4028f0 2 0.00
0x4028f8 2 0.00
0x402900 1 0.00
0x402908 1 0.00
0x402910 1 0.00
0x402918 1 0.00
0x402920 1 0.00
0x402928 1 0.00
0x402930 1 0.00
0x402938 1 0.00
0x402940 1 0.00
0x402948 1 0.00
0x4029c8 1 0.00
0x4029d0 1 0.00
0x4029d8 1 0.00
0x4029e0 3 0.01
0x4029e8 3 0.01
0x4029f0 3 0.01
0x4029f8 3 0.01
0x402a00 3 0.01
0x402a08 3 0.01
0x402a10 3 0.01
0x402a18 3 0.01
0x402a20 3 0.01
0x402a28 3 0.01
0x402a30 4 0.01
0x402a38 4 0.01
0x402a40 4 0.01
0x402a48 4 0.01
0x402a50 4 0.01
0x402a58 4 0.01
0x402a60 4 0.01
0x402a68 4 0.01
0x402a70 4 0.01
0x402a78 4 0.01
0x402aa8 4 0.01
0x402ab0 4 0.01
0x402ab8 4 0.01
0x402ac0 390 0.70
0x402ac8 390 0.70
0x402ad0 390 0.70
0x402ad8 390 0.70
0x402ae0 390 0.70
0x402ae8 390 0.70
0x402af0 390 0.70
0x402af8 390 0.70
0x402b00 390 0.70
0x402b08 390 0.70
0x402b10 390 0.70
0x402b18 390 0.70
0x402b20 4 0.01
0x402b28 4 0.01
0x402b30 4 0.01
0x402b38 12 0.02
0x402b40 12 0.02
0x402b48 12 0.02
0x402b50 12 0.02
0x402b58 4 0.01
0x402b60 4 0.01
0x402b88 4 0.01
0x402b90 4 0.01
0x402d60 1 0.00
0x402d68 1 0.00
0x402d70 1 0.00
0x402d78 1 0.00
0x402d80 1 0.00
0x402d88 1 0.00
0x402d90 1 0.00
0x402d98 1 0.00
0x402da0 1 0.00
0x402da8 1 0.00
0x402db8 1 0.00
0x402dc0 1 0.00
0x402dc8 1 0.00
0x402dd0 1 0.00
0x402dd8 1 0.00
0x402de0 1 0.00
0x402de8 1 0.00
0x402df0 1 0.00
0x402df8 1 0.00
0x402e00 1 0.00
0x402e08 1 0.00
0x402e10 1 0.00
0x402e18 1 0.00
0x402e20 1 0.00
0x402e28 1 0.00
0x402e30 1 0.00
0x402e38 1 0.00
0x402e40 1 0.00
0x402e48 1 0.00
0x402e50 1 0.00
0x402e58 1 0.00
0x402e60 1 0.00
0x402e68 1 0.00
0x402e70 1 0.00
0x402e78 1 0.00
0x402ec8 1 0.00
0x402ed0 1 0.00
0x402ed8 1 0.00
0x402ee0 1 0.00
0x402ee8 1 0.00
0x402ef0 1 0.00
0x402ef8 1 0.00
0x402f10 1 0.00
0x402f18 1 0.00
0x402f20 1 0.00
0x402f28 1 0.00
0x402f30 1 0.00
0x402f38 1 0.00
0x402f40 1 0.00
0x402f48 1 0.00
0x402f50 1 0.00
0x402f58 1 0.00
0x402f60 1 0.00
0x402f68 1 0.00
0x402f70 1 0.00
0x402fc0 1 0.00
0x402fc8 1 0.00
0x402fd0 1 0.00
0x402fd8 1 0.00
0x402fe0 1 0.00
0x402fe8 1 0.00
0x402ff0 1 0.00
0x402ff8 1 0.00
0x403000 1 0.00
0x403008 1 0.00
0x403010 1 0.00
0x403018 1 0.00
0x403020 1 0.00
0x403028 1 0.00
0x403030 1 0.00
0x403038 1 0.00
0x403040 1 0.00
0x403048 1 0.00
0x403050 1 0.00
0x403058 1 0.00
0x403060 1 0.00
0x403068 1 0.00
0x403070 1 0.00
0x403078 1 0.00
0x403080 1 0.00
0x403088 1 0.00
0x403090 1 0.00
0x403098 1 0.00
0x403150 1 0.00
0x403158 1 0.00
0x403160 1 0.00
0x403168 1 0.00
0x403170 1 0.00
0x4032c0 1 0.00
0x4032c8 1 0.00
0x4035d8 1 0.00
0x4035e0 1 0.00
0x4035e8 1 0.00
0x4035f0 1 0.00
0x4035f8 1 0.00
0x403600 1 0.00
0x403608 1 0.00
0x403610 1 0.00
0x403618 1 0.00
0x403620 1 0.00
0x403628 1 0.00
0x403630 1 0.00
0x403658 1 0.00
0x403660 1 0.00
0x403690 1 0.00
0x403698 1 0.00
0x4036a0 1 0.00
0x4036a8 1 0.00
0x403ad8 2 0.00
0x403ae0 2 0.00
0x403ae8 2 0.00
0x403af0 2 0.00
0x403af8 2 0.00
0x403b00 2 0.00
0x403b08 2 0.00
0x403b10 2 0.00
0x403b18 2 0.00
0x403b20 2 0.00
0x403b28 2 0.00
0x403b30 2 0.00
0x403b38 2 0.00
0x403b40 2 0.00
0x403b48 2 0.00
0x403b50 2 0.00
0x403b58 2 0.00
0x403b60 2 0.00
0x403b68 2 0.00
0x403b70 2 0.00
0x403b78 2 0.00
0x403b80 2 0.00
0x403b88 2 0.00
0x403b90 2 0.00
0x403b98 2 0.00
0x403ba0 2 0.00
0x403ba8 2 0.00
0x403bb0 2 0.00
0x403d68 2 0.00
0x403d70 2 0.00
0x403d78 1 0.00
0x403d80 1 0.00
0x403d88 1 0.00
0x403d90 1 0.00
0x403d98 1 0.00
0x403da0 1 0.00
0x403da8 1 0.00
0x403e10 2 0.00
0x403e18 2 0.00
0x403e20 2 0.00
0x403e28 2 0.00
0x403e60 2 0.00
0x403e68 2 0.00
0x403e70 2 0.00
0x403e78 2 0.00
0x403e80 2 0.00
0x403e88 2 0.00
0x403e90 2 0.00
0x403e98 2 0.00
0x403ea0 2 0.00
0x403ea8 2 0.00
0x403eb0 2 0.00
0x4041b0 2 0.00
0x4041b8 2 0.00
0x4041c0 2 0.00
0x4041c8 2 0.00
0x4041d0 2 0.00
0x4041d8 2 0.00
0x4041e0 2 0.00
0x4041e8 2 0.00
0x4041f0 2 0.00
0x404208 2 0.00
0x404210 2 0.00
0x404218 2 0.00
0x404220 2 0.00
0x404228 2 0.00
0x404230 2 0.00
0x404238 2 0.00
0x404240 2 0.00
0x404248 2 0.00
0x404250 2 0.00
0x404258 2 0.00
0x4046f0 2 0.00
0x4046f8 2 0.00
0x404700 2 0.00
0x404708 2 0.00
0x404710 2 0.00
0x404718 2 0.00
0x404720 2 0.00
0x404728 2 0.00
0x404730 2 0.00
0x404738 2 0.00
0x404740 2 0.00
0x404748 2 0.00
0x404750 2 0.00
0x404758 2 0.00
0x404760 2 0.00
0x404778 2 0.00
0x404780 2 0.00
0x404788 2 0.00
0x404790 2 0.00
0x404798 2 0.00
0x4047a0 2 0.00
0x4047a8 2 0.00
0x4047d0 2 0.00
0x4047d8 2 0.00
0x4047e0 2 0.00
0x4047e8 2 0.00
0x4047f0 2 0.00
0x404828 2 0.00
0x404830 2 0.00
0x404838 2 0.00
0x404840 2 0.00
0x404848 2 0.00
0x404850 2 0.00
0x404858 2 0.00
0x404860 2 0.00
0x404868 2 0.00
0x404870 2 0.00
0x404878 2 0.00
0x404880 2 0.00
0x404888 2 0.00
0x404890 2 0.00
0x404898 2 0.00
0x4048a0 2 0.00
0x4048a8 2 0.00
0x4048b0 2 0.00
0x4048b8 2 0.00
0x4048c0 2 0.00
0x4048c8 2 0.00
0x4048d0 2 0.00
0x4048d8 2 0.00
0x4048e0 2 0.00
0x4048e8 2 0.00
0x4048f0 2 0.00
0x4048f8 2 0.00
0x404900 2 0.00
0x404908 2 0.00
0x404910 2 0.00
0x404918 1 0.00
0x404920 1 0.00
0x404938 1 0.00
0x404940 1 0.00
0x404948 1 0.00
0x404950 1 0.00
0x404958 1 0.00
0x404960 1 0.00
0x404968 1 0.00
0x4049a0 1 0.00
0x4049a8 1 0.00
0x4049b0 1 0.00
0x4049d8 2 0.00
0x4049e0 2 0.00
0x4049e8 2 0.00
0x4049f0 2 0.00
0x4049f8 2 0.00
0x404a00 2 0.00
0x404a08 2 0.00
0x404a10 2 0.00
0x404a18 2 0.00
0x404a48 2 0.00
0x404b10 2 0.00
0x404b18 2 0.00
0x404b20 2 0.00
0x404b48 2 0.00
0x404b50 2 0.00
0x404b60 2 0.00
0x404b68 2 0.00
0x404b70 2 0.00
0x404b78 2 0.00
0x404b80 2 0.00
0x404b88 2 0.00
0x404bb8 2 0.00
0x404bc0 2 0.00
0x404bc8 2 0.00
0x404bd0 2 0.00
0x404be8 2 0.00
0x404bf0 2 0.00
0x404bf8 2 0.00
0x404c00 2 0.00
0x404c08 2 0.00
0x404c10 2 0.00
0x404c18 2 0.00
0x404c20 2 0.00
0x4051b8 3 0.01
0x4051c0 3 0.01
0x4051c8 3 0.01
0x4051d0 3 0.01
0x4051d8 3 0.01
0x4051e0 3 0.01
0x4051e8 3 0.01
0x4051f0 3 0.01
0x4051f8 3 0.01
0x405200 3 0.01
0x405208 3 0.01
0x405210 3 0.01
0x405218 3 0.01
0x405220 3 0.01
0x405228 3 0.01
0x4053d0 2 0.00
0x4053d8 2 0.00
0x4053e0 2 0.00
0x4053e8 2 0.00
0x4053f0 2 0.00
0x4053f8 2 0.00
0x405870 3 0.01
0x405878 3 0.01
0x405880 3 0.01
0x405888 3 0.01
0x4058a0 3 0.01
0x4058a8 3 0.01
0x4058b0 3 0.01
0x4058b8 3 0.01
0x4058c0 3 0.01
0x4058c8 3 0.01
0x4058d0 3 0.01
0x4058d8 3 0.01
0x4058e0 3 0.01
0x4058e8 3 0.01
0x4058f0 3 0.01
0x406150 2 0.00
0x406158 2 0.00
0x406160 2 0.00
0x406168 2 0.00
0x406170 2 0.00
0x406178 2 0.00
0x406180 2 0.00
0x406188 2 0.00
0x406190 2 0.00
0x406198 2 0.00
0x4061a0 2 0.00
0x4061a8 1 0.00
0x4061b0 1 0.00
0x4061b8 1 0.00
0x4061c0 1 0.00
0x4061c8 1 0.00
0x4061d0 1 0.00
0x4061d8 1 0.00
0x4061e0 1 0.00
0x406208 1 0.00
0x406210 1 0.00
0x406250 1 0.00
0x406258 1 0.00
0x406260 2 0.00
0x406268 2 0.00
0x406270 2 0.00
0x406278 2 0.00
0x406280 2 0.00
0x406360 2 0.00
0x406368 2 0.00
0x406370 2 0.00
0x406378 2 0.00
0x406380 2 0.00
0x406410 3 0.01
0x406418 3 0.01
0x406420 3 0.01
0x406430 3 0.01
0x406438 3 0.01
0x406440 3 0.01
0x406448 3 0.01
0x406450 3 0.01
0x406458 3 0.01
0x406480 1 0.00
0x406488 1 0.00
0x406490 1 0.00
0x406498 1 0.00
0x4064a0 1 0.00
sim_num_insn_by_pc.end_dist

ld_text_base             0x00400000 # target_name text (code) segment base
ld_text_size                  26080 # target_name text (code) size in bytes
ld_data_base             0x10000000 # target_name initialized data segment base
ld_data_size                   4096 # target_name init'ed `.data' and uninit'ed `.bss' size in bytes
ld_stack_base            0x7fffc000 # target_name stack segment base (highest address in stack)
ld_stack_size                 16384 # target_name initial stack size
ld_prog_entry            0x00400140 # target_name entry point (initial PC)
ld_environ_base          0x7fff8000 # target_name environment base address address
ld_target_big_endian              0 # target executable endian-ness, non-zero if big endian
mem.page_count                   13 # total number of pages allocated
mem.page_mem                    52k # total size of memory pages allocated
mem.ptab_misses                  13 # total first level page table misses
mem.ptab_accesses            427792 # total page table accesses
mem.ptab_miss_rate           0.0000 # first level page table miss rate

+--------------------------------------------------------------+
| effective code range:         [0, fffffff8]                  |
| effective bpred count:        0                              |
| effective sim cycles:         0                              |
| effective bpred misses:       0                              |
| effective icache misses:      0                              |
+--------------------------------------------------------------+

