sim-profile: SimpleScalar/PISA Tool Set version 3.0 of August, 2003.
Copyright (c) 1994-2003 by Todd M. Austin, Ph.D. and SimpleScalar, LLC.
All Rights Reserved. This version of SimpleScalar is licensed for academic
non-commercial use.  No portion of this work may be used by any commercial
entity, or for any commercial purpose, without the prior written permission
of SimpleScalar, LLC (info@simplescalar.com).

sim: command line: /home/sudiptac/sudiptac/Work/simplesim-3.0/sim-profile -pcstat sim_num_insn fbw_radio_mancmd 

sim: simulation started @ Thu May 10 13:35:48 2012, options follow:

sim-profile: This simulator implements a functional simulator with
profiling support.  Run with the `-h' flag to see profiling options
available.

# -config                     # load configuration from a file
# -dumpconfig                 # dump configuration to a file
# -h                    false # print help message    
# -v                    false # verbose operation     
# -d                    false # enable debug message  
# -i                    false # start in Dlite debugger
-seed                       1 # random number generator seed (0 for timer seed)
# -q                    false # initialize and terminate immediately
# -chkpt               <null> # restore EIO trace execution from <fname>
# -redir:sim           <null> # redirect simulator output to file (non-interactive only)
# -redir:prog          <null> # redirect simulated program output to file
-nice                       0 # simulator scheduling priority
-max:inst                   0 # maximum number of inst's to execute
-all                    false # enable all profile options
-iclass                 false # enable instruction class profiling
-iprof                  false # enable instruction profiling
-brprof                 false # enable branch instruction profiling
-amprof                 false # enable address mode profiling
-segprof                false # enable load/store address segment profiling
-tsymprof               false # enable text symbol profiling
-taddrprof              false # enable text address profiling
-dsymprof               false # enable data symbol profiling
-internal               false # include compiler-internal symbols during symbol profiling
# -pcstat        sim_num_insn # profile stat(s) against text addr's (mult uses ok)

sim: ** starting functional simulation **

sim: ** simulation statistics **
sim_num_insn                  20292 # total number of instructions executed
sim_num_refs                   7657 # total number of loads and stores executed
sim_elapsed_time                  1 # total simulation time in seconds
sim_inst_rate            20292.0000 # simulation speed (in insts/sec)

sim_num_insn_by_pc     # total number of instructions executed (by text address)
sim_num_insn_by_pc.count = 1107
sim_num_insn_by_pc.total = 20291
sim_num_insn_by_pc.imin = 0x400140
sim_num_insn_by_pc.imax = 0x406460
sim_num_insn_by_pc.average =  18.3297
sim_num_insn_by_pc.std_dev = 118.1873
sim_num_insn_by_pc.overflows = 0
# pdf == prob dist fn, cdf == cumulative dist fn
#          index      count    pdf 
sim_num_insn_by_pc.start_dist
0x400140 1 0.00
0x400148 1 0.00
0x400150 1 0.00
0x400158 1 0.00
0x400160 1 0.00
0x400168 1 0.00
0x400170 1 0.00
0x400178 1 0.00
0x400180 1 0.00
0x400188 1 0.00
0x400190 1 0.00
0x400198 1 0.00
0x4001a0 1 0.00
0x4001a8 1 0.00
0x4001b0 1 0.00
0x4001b8 1 0.00
0x4001c0 1 0.00
0x4001c8 1 0.00
0x4001d0 1 0.00
0x4001d8 1 0.00
0x4001e0 1 0.00
0x4001f0 1 0.00
0x4001f8 1 0.00
0x400200 1 0.00
0x400208 1 0.00
0x400210 1 0.00
0x400218 1 0.00
0x400220 1 0.00
0x400228 1 0.00
0x400230 1 0.00
0x400238 1 0.00
0x400240 1 0.00
0x400248 1 0.00
0x400250 1 0.00
0x400258 1 0.00
0x400260 1 0.00
0x400268 1 0.00
0x400270 1 0.00
0x400280 1 0.00
0x400288 1 0.00
0x4002a0 1 0.00
0x4002a8 1 0.00
0x4002b0 1 0.00
0x4002b8 1 0.00
0x4002c0 1 0.00
0x4002c8 1 0.00
0x4002d0 1 0.00
0x4002d8 1 0.00
0x4002e0 1 0.00
0x4002e8 1 0.00
0x4002f0 1 0.00
0x4002f8 1 0.00
0x400300 1 0.00
0x400308 1 0.00
0x400310 1 0.00
0x400318 1 0.00
0x400328 1 0.00
0x400330 1 0.00
0x400348 1 0.00
0x400350 1 0.00
0x400358 1 0.00
0x400360 1 0.00
0x400368 1 0.00
0x400370 1 0.00
0x400378 1 0.00
0x400380 1 0.00
0x400388 1 0.00
0x400390 1 0.00
0x400398 1 0.00
0x4003a0 1 0.00
0x4003a8 1 0.00
0x4003b0 1 0.00
0x4003b8 1 0.00
0x4003c8 1 0.00
0x4003d0 1 0.00
0x4003e8 1 0.00
0x4003f0 1 0.00
0x4003f8 1 0.00
0x400400 1 0.00
0x400408 1 0.00
0x400410 1 0.00
0x400418 1 0.00
0x400420 1 0.00
0x400428 1 0.00
0x400438 1 0.00
0x400440 1 0.00
0x400448 1 0.00
0x400450 1 0.00
0x400458 1 0.00
0x400460 1 0.00
0x400468 1 0.00
0x400470 1 0.00
0x400478 1 0.00
0x400480 1 0.00
0x400488 1 0.00
0x400490 1 0.00
0x400498 1 0.00
0x4004a8 1 0.00
0x4004b0 1 0.00
0x4004c8 1 0.00
0x4004d0 1 0.00
0x4004d8 1 0.00
0x4004e0 1 0.00
0x4004e8 1 0.00
0x400510 1 0.00
0x400518 1 0.00
0x400520 1 0.00
0x400528 1 0.00
0x400530 1 0.00
0x400538 1 0.00
0x400540 1 0.00
0x400548 1 0.00
0x400550 1 0.00
0x400558 1 0.00
0x400560 1 0.00
0x400568 1 0.00
0x400570 1 0.00
0x400578 1 0.00
0x400588 1 0.00
0x400590 1 0.00
0x4005a8 1 0.00
0x4005b0 1 0.00
0x4005b8 1 0.00
0x4005c0 1 0.00
0x4005c8 1 0.00
0x4005d0 1 0.00
0x4005d8 1 0.00
0x4005e0 1 0.00
0x4005e8 1 0.00
0x4005f0 1 0.00
0x4005f8 1 0.00
0x400600 1 0.00
0x400608 1 0.00
0x400610 1 0.00
0x400618 1 0.00
0x400620 1 0.00
0x400628 1 0.00
0x400630 1 0.00
0x400638 1 0.00
0x400640 1 0.00
0x400648 1 0.00
0x400650 1 0.00
0x400668 1 0.00
0x400670 1 0.00
0x400678 1 0.00
0x400680 1 0.00
0x400688 1 0.00
0x400690 1 0.00
0x400698 1 0.00
0x4006a0 1 0.00
0x4006a8 1 0.00
0x4006b0 1 0.00
0x4006b8 1 0.00
0x4006c0 1 0.00
0x4006c8 1 0.00
0x4006d0 1 0.00
0x4006d8 1 0.00
0x4006e0 1 0.00
0x4006e8 1 0.00
0x4006f0 1 0.00
0x4006f8 1 0.00
0x400700 1 0.00
0x400720 1 0.00
0x400730 1 0.00
0x400738 1 0.00
0x400740 1 0.00
0x400748 1 0.00
0x400750 1 0.00
0x400758 1 0.00
0x400760 1 0.00
0x400768 1 0.00
0x400770 1 0.00
0x400778 1 0.00
0x400780 1 0.00
0x400788 1 0.00
0x400790 1 0.00
0x400798 1 0.00
0x4007a0 1 0.00
0x4007a8 1 0.00
0x4007c0 1 0.00
0x4007c8 1 0.00
0x4007d0 1 0.00
0x4007d8 1 0.00
0x4007e0 1 0.00
0x4007e8 1 0.00
0x4007f0 1 0.00
0x4007f8 1 0.00
0x400800 1 0.00
0x400808 1 0.00
0x400810 1 0.00
0x400818 1 0.00
0x400820 1 0.00
0x400828 1 0.00
0x400830 1 0.00
0x400838 1 0.00
0x400840 1 0.00
0x400848 1 0.00
0x400850 1 0.00
0x400858 1 0.00
0x400870 1 0.00
0x400878 1 0.00
0x400880 1 0.00
0x400888 1 0.00
0x400890 1 0.00
0x400898 1 0.00
0x4008a0 1 0.00
0x4008a8 1 0.00
0x4008b0 1 0.00
0x4008b8 1 0.00
0x4008c0 1 0.00
0x4008c8 1 0.00
0x4008d0 1 0.00
0x4008d8 1 0.00
0x4008e0 1 0.00
0x4008e8 1 0.00
0x4008f0 1 0.00
0x4008f8 1 0.00
0x400900 1 0.00
0x400908 1 0.00
0x400920 1 0.00
0x400928 1 0.00
0x400930 1 0.00
0x400938 1 0.00
0x400940 1 0.00
0x400948 1 0.00
0x400950 1 0.00
0x400958 1 0.00
0x400960 1 0.00
0x400968 1 0.00
0x400970 1 0.00
0x400978 1 0.00
0x400980 1 0.00
0x400988 1 0.00
0x400990 1 0.00
0x400998 1 0.00
0x4009a0 1 0.00
0x4009a8 1 0.00
0x4009b0 1 0.00
0x4009b8 1 0.00
0x4009c0 1 0.00
0x4009c8 1 0.00
0x4009d0 1 0.00
0x4009d8 1 0.00
0x4009e0 1 0.00
0x4009e8 1 0.00
0x4009f0 1 0.00
0x4009f8 1 0.00
0x400a00 1 0.00
0x400a08 1 0.00
0x400a10 1 0.00
0x400a18 1 0.00
0x400a20 1 0.00
0x400a28 1 0.00
0x400a30 1 0.00
0x400a38 1 0.00
0x400a40 1 0.00
0x400a48 1 0.00
0x400a50 1 0.00
0x400a58 1 0.00
0x400a60 1 0.00
0x400a68 1 0.00
0x400a70 1 0.00
0x400a78 1 0.00
0x400a80 1 0.00
0x400a88 1 0.00
0x400a90 1 0.00
0x400a98 1 0.00
0x400aa0 1 0.00
0x400aa8 1 0.00
0x400ab0 1 0.00
0x400ab8 1 0.00
0x400ac0 1 0.00
0x400ac8 1 0.00
0x400ad0 1 0.00
0x400ad8 1 0.00
0x400ae0 1 0.00
0x400ae8 1 0.00
0x400af0 1 0.00
0x400af8 1 0.00
0x400b00 1 0.00
0x400b08 1 0.00
0x400b10 1 0.00
0x400b18 1 0.00
0x400b20 1 0.00
0x400b28 1 0.00
0x400b30 1 0.00
0x400b38 1 0.00
0x400b40 1 0.00
0x400b48 1 0.00
0x400b50 1 0.00
0x400b58 1 0.00
0x400b60 1 0.00
0x400b68 1 0.00
0x400b70 1 0.00
0x400b78 1 0.00
0x400b80 1 0.00
0x400b88 1 0.00
0x400b90 1 0.00
0x400b98 1 0.00
0x400ba0 1 0.00
0x400ba8 1 0.00
0x400bb0 1 0.00
0x400bb8 1 0.00
0x400bc0 1 0.00
0x400bc8 1 0.00
0x400bd0 1 0.00
0x400bd8 1 0.00
0x400be0 1 0.00
0x400be8 1 0.00
0x400bf0 1 0.00
0x400bf8 1 0.00
0x400c00 1 0.00
0x400c08 1 0.00
0x400c10 1 0.00
0x400c18 1 0.00
0x400c20 1 0.00
0x400ed0 1 0.00
0x400ed8 1 0.00
0x400ee0 1 0.00
0x400ee8 1 0.00
0x400ef0 1 0.00
0x400ef8 1 0.00
0x400f00 1 0.00
0x400f08 1 0.00
0x400f10 1 0.00
0x400f18 1 0.00
0x400f20 1 0.00
0x400f28 1000 4.93
0x400f30 1000 4.93
0x400f38 1 0.00
0x400f40 1 0.00
0x400f48 1 0.00
0x400f50 1 0.00
0x400f58 1 0.00
0x400f60 1 0.00
0x400f68 1 0.00
0x400f70 1 0.00
0x400f78 1 0.00
0x400f80 1 0.00
0x400fb0 1 0.00
0x400fb8 1 0.00
0x400fc0 1 0.00
0x400fc8 1 0.00
0x400fd0 1 0.00
0x400fd8 1 0.00
0x400fe0 1 0.00
0x400fe8 1 0.00
0x400ff0 999 4.92
0x400ff8 999 4.92
0x401000 999 4.92
0x401008 999 4.92
0x401018 1000 4.93
0x401020 1000 4.93
0x401028 1000 4.93
0x401038 1000 4.93
0x401040 1000 4.93
0x401050 1000 4.93
0x401058 1000 4.93
0x401060 1000 4.93
0x401068 1 0.00
0x401070 1 0.00
0x401078 1 0.00
0x401080 1 0.00
0x401088 1 0.00
0x401090 1 0.00
0x4010a0 1 0.00
0x4010a8 1 0.00
0x4010b0 1 0.00
0x4010b8 1 0.00
0x4010c0 1 0.00
0x4010c8 1 0.00
0x4010d0 1 0.00
0x4010d8 1 0.00
0x4010e0 1 0.00
0x4010e8 1 0.00
0x4010f0 1 0.00
0x4010f8 1 0.00
0x401100 1 0.00
0x401108 1 0.00
0x401110 1 0.00
0x401118 1 0.00
0x401120 1 0.00
0x401128 1 0.00
0x401130 1 0.00
0x401138 1 0.00
0x401140 1 0.00
0x401148 1 0.00
0x401150 1 0.00
0x401200 1 0.00
0x401208 1 0.00
0x401210 1 0.00
0x401218 1 0.00
0x401220 1 0.00
0x401270 1 0.00
0x401278 1 0.00
0x401280 1 0.00
0x401288 1 0.00
0x401290 1 0.00
0x401298 1 0.00
0x4012a0 1 0.00
0x4012a8 1 0.00
0x4012b0 1 0.00
0x4012b8 1 0.00
0x4012c0 1 0.00
0x4012c8 1 0.00
0x4012d8 1 0.00
0x4012e0 1 0.00
0x4012e8 1 0.00
0x4012f0 1 0.00
0x4012f8 1 0.00
0x401510 1 0.00
0x401518 1 0.00
0x401520 1 0.00
0x401528 1 0.00
0x401530 1 0.00
0x401538 1 0.00
0x401540 1 0.00
0x401560 1 0.00
0x401580 1 0.00
0x401588 1 0.00
0x401590 1 0.00
0x401598 1 0.00
0x4015a0 1 0.00
0x4015a8 1 0.00
0x4015c8 1 0.00
0x4015d0 1 0.00
0x4015d8 1 0.00
0x4015e0 1 0.00
0x401600 1 0.00
0x401608 1 0.00
0x401610 1 0.00
0x401618 1 0.00
0x401620 1 0.00
0x401628 1 0.00
0x401630 1 0.00
0x401638 1 0.00
0x401640 1 0.00
0x401648 1 0.00
0x401650 1 0.00
0x401658 1 0.00
0x401660 1 0.00
0x401668 1 0.00
0x401670 1 0.00
0x401678 1 0.00
0x401680 1 0.00
0x401688 1 0.00
0x401690 1 0.00
0x401698 1 0.00
0x4016a0 1 0.00
0x4016a8 1 0.00
0x4016b0 1 0.00
0x4016b8 1 0.00
0x4016c8 1 0.00
0x4016d0 1 0.00
0x4016d8 1 0.00
0x4016e0 1 0.00
0x4016e8 1 0.00
0x4016f0 1 0.00
0x4016f8 1 0.00
0x401700 1 0.00
0x401708 1 0.00
0x401710 1 0.00
0x401718 1 0.00
0x401720 1 0.00
0x401728 1 0.00
0x401730 1 0.00
0x401738 1 0.00
0x401740 1 0.00
0x401748 1 0.00
0x401750 1 0.00
0x401758 1 0.00
0x401760 1 0.00
0x401768 1 0.00
0x401770 1 0.00
0x401778 1 0.00
0x401780 1 0.00
0x401788 1 0.00
0x401798 1 0.00
0x4017a0 1 0.00
0x4017a8 1 0.00
0x4017b0 1 0.00
0x4017b8 1 0.00
0x4017c0 1 0.00
0x4017c8 1 0.00
0x4017d0 1 0.00
0x4017d8 1 0.00
0x4017e0 1 0.00
0x4017e8 1 0.00
0x4017f0 1 0.00
0x4017f8 1 0.00
0x401800 1 0.00
0x401808 1 0.00
0x401810 1 0.00
0x401818 1 0.00
0x401848 1 0.00
0x401850 1 0.00
0x401860 1 0.00
0x401868 1 0.00
0x401880 1 0.00
0x401888 1 0.00
0x401890 1 0.00
0x401898 1 0.00
0x4018a8 1 0.00
0x4018b0 1 0.00
0x4018b8 1 0.00
0x4018c0 1 0.00
0x4018c8 1 0.00
0x401b50 1 0.00
0x401b58 1 0.00
0x401b60 1 0.00
0x401b68 1 0.00
0x401b78 1 0.00
0x401b80 1 0.00
0x401b88 1 0.00
0x401b90 1 0.00
0x401b98 1 0.00
0x401ba0 1 0.00
0x401ba8 1 0.00
0x401bb0 1 0.00
0x401bb8 1 0.00
0x401bc0 1 0.00
0x401bc8 1 0.00
0x401bd0 1 0.00
0x401bd8 1 0.00
0x401be0 1 0.00
0x401be8 1 0.00
0x401bf0 1 0.00
0x401bf8 1 0.00
0x401c00 1 0.00
0x401c08 1 0.00
0x401c10 1 0.00
0x401c18 1 0.00
0x401c20 1 0.00
0x401c38 1 0.00
0x401c40 1 0.00
0x401c48 1 0.00
0x401c50 1 0.00
0x401c58 1 0.00
0x401c60 1 0.00
0x401c70 1 0.00
0x401c78 1 0.00
0x402010 1 0.00
0x402018 1 0.00
0x402020 1 0.00
0x402028 1 0.00
0x402030 1 0.00
0x402038 1 0.00
0x402040 1 0.00
0x402048 1 0.00
0x402050 1 0.00
0x402058 1 0.00
0x402060 1 0.00
0x402068 1 0.00
0x402070 1 0.00
0x402078 1 0.00
0x402080 1 0.00
0x402088 1 0.00
0x402090 1 0.00
0x402098 1 0.00
0x4020a0 1 0.00
0x4020a8 1 0.00
0x4020b0 1 0.00
0x4020b8 1 0.00
0x4020c0 1 0.00
0x4020c8 1 0.00
0x4020d0 1 0.00
0x4020d8 1 0.00
0x4021c0 1 0.00
0x4021c8 1 0.00
0x4021d0 1 0.00
0x4021d8 1 0.00
0x4021e0 1 0.00
0x4021e8 1 0.00
0x4021f0 1 0.00
0x402200 1 0.00
0x402208 1 0.00
0x402210 1 0.00
0x402218 1 0.00
0x402220 1 0.00
0x402228 1 0.00
0x402230 1 0.00
0x402238 1 0.00
0x402240 1 0.00
0x402248 1 0.00
0x402250 1 0.00
0x402258 1 0.00
0x402260 1 0.00
0x402268 1 0.00
0x402270 1 0.00
0x402278 1 0.00
0x402280 1 0.00
0x402518 1 0.00
0x402520 1 0.00
0x402528 1 0.00
0x402530 1 0.00
0x402538 1 0.00
0x402540 1 0.00
0x402548 1 0.00
0x402550 1 0.00
0x402560 4 0.02
0x402568 4 0.02
0x402570 4 0.02
0x402578 4 0.02
0x402580 4 0.02
0x402588 4 0.02
0x402590 4 0.02
0x402598 1 0.00
0x4025a0 1 0.00
0x4025a8 1 0.00
0x4025b0 1 0.00
0x4025b8 1 0.00
0x4025c0 1 0.00
0x4025c8 3 0.01
0x4025d0 3 0.01
0x4025e8 3 0.01
0x4025f0 3 0.01
0x4025f8 3 0.01
0x402600 3 0.01
0x402608 3 0.01
0x402610 3 0.01
0x402618 1 0.00
0x402620 1 0.00
0x402628 3 0.01
0x402630 3 0.01
0x402638 3 0.01
0x402640 3 0.01
0x402658 3 0.01
0x402660 3 0.01
0x402668 3 0.01
0x402670 3 0.01
0x402698 3 0.01
0x4026a0 3 0.01
0x4026a8 3 0.01
0x4026b0 2 0.01
0x4026b8 2 0.01
0x4026c0 2 0.01
0x4026c8 2 0.01
0x4026d0 2 0.01
0x4026e8 3 0.01
0x4026f0 3 0.01
0x4026f8 1 0.00
0x402700 1 0.00
0x402708 1 0.00
0x402710 1 0.00
0x402718 3 0.01
0x402720 3 0.01
0x402728 2 0.01
0x402730 2 0.01
0x402738 2 0.01
0x402740 2 0.01
0x402748 1 0.00
0x402750 1 0.00
0x402758 1 0.00
0x402760 1 0.00
0x402768 1 0.00
0x402788 1 0.00
0x402790 3 0.01
0x402798 3 0.01
0x4027a0 3 0.01
0x4027a8 4 0.02
0x4027b0 4 0.02
0x4027b8 4 0.02
0x4027c0 4 0.02
0x4027c8 4 0.02
0x4027d0 4 0.02
0x402800 1 0.00
0x402808 1 0.00
0x402810 1 0.00
0x402818 1 0.00
0x402850 1 0.00
0x402858 1 0.00
0x402860 1 0.00
0x402868 1 0.00
0x402870 1 0.00
0x402878 1 0.00
0x402880 5 0.02
0x402888 5 0.02
0x402890 5 0.02
0x402898 5 0.02
0x4028a0 5 0.02
0x4028a8 5 0.02
0x4028b0 5 0.02
0x4028b8 5 0.02
0x4028c0 4 0.02
0x4028c8 4 0.02
0x4028d0 4 0.02
0x4028d8 4 0.02
0x4028e0 4 0.02
0x4028e8 4 0.02
0x4028f0 1 0.00
0x4028f8 1 0.00
0x402900 1 0.00
0x402908 1 0.00
0x402988 1 0.00
0x402990 1 0.00
0x402998 1 0.00
0x4029a0 3 0.01
0x4029a8 3 0.01
0x4029b0 3 0.01
0x4029b8 3 0.01
0x4029c0 3 0.01
0x4029c8 3 0.01
0x4029d0 3 0.01
0x4029d8 3 0.01
0x4029e0 3 0.01
0x4029e8 3 0.01
0x4029f0 4 0.02
0x4029f8 4 0.02
0x402a00 4 0.02
0x402a08 4 0.02
0x402a10 4 0.02
0x402a18 4 0.02
0x402a20 4 0.02
0x402a28 4 0.02
0x402a30 4 0.02
0x402a38 4 0.02
0x402a68 4 0.02
0x402a70 4 0.02
0x402a78 4 0.02
0x402a80 390 1.92
0x402a88 390 1.92
0x402a90 390 1.92
0x402a98 390 1.92
0x402aa0 390 1.92
0x402aa8 390 1.92
0x402ab0 390 1.92
0x402ab8 390 1.92
0x402ac0 390 1.92
0x402ac8 390 1.92
0x402ad0 390 1.92
0x402ad8 390 1.92
0x402ae0 4 0.02
0x402ae8 4 0.02
0x402af0 4 0.02
0x402af8 12 0.06
0x402b00 12 0.06
0x402b08 12 0.06
0x402b10 12 0.06
0x402b18 4 0.02
0x402b20 4 0.02
0x402b48 4 0.02
0x402b50 4 0.02
0x402d20 1 0.00
0x402d28 1 0.00
0x402d30 1 0.00
0x402d38 1 0.00
0x402d40 1 0.00
0x402d48 1 0.00
0x402d50 1 0.00
0x402d58 1 0.00
0x402d60 1 0.00
0x402d68 1 0.00
0x402d78 1 0.00
0x402d80 1 0.00
0x402d88 1 0.00
0x402d90 1 0.00
0x402d98 1 0.00
0x402da0 1 0.00
0x402da8 1 0.00
0x402db0 1 0.00
0x402db8 1 0.00
0x402dc0 1 0.00
0x402dc8 1 0.00
0x402dd0 1 0.00
0x402dd8 1 0.00
0x402de0 1 0.00
0x402de8 1 0.00
0x402df0 1 0.00
0x402df8 1 0.00
0x402e00 1 0.00
0x402e08 1 0.00
0x402e10 1 0.00
0x402e18 1 0.00
0x402e20 1 0.00
0x402e28 1 0.00
0x402e30 1 0.00
0x402e38 1 0.00
0x402e88 1 0.00
0x402e90 1 0.00
0x402e98 1 0.00
0x402ea0 1 0.00
0x402ea8 1 0.00
0x402eb0 1 0.00
0x402eb8 1 0.00
0x402ed0 1 0.00
0x402ed8 1 0.00
0x402ee0 1 0.00
0x402ee8 1 0.00
0x402ef0 1 0.00
0x402ef8 1 0.00
0x402f00 1 0.00
0x402f08 1 0.00
0x402f10 1 0.00
0x402f18 1 0.00
0x402f20 1 0.00
0x402f28 1 0.00
0x402f30 1 0.00
0x402f80 1 0.00
0x402f88 1 0.00
0x402f90 1 0.00
0x402f98 1 0.00
0x402fa0 1 0.00
0x402fa8 1 0.00
0x402fb0 1 0.00
0x402fb8 1 0.00
0x402fc0 1 0.00
0x402fc8 1 0.00
0x402fd0 1 0.00
0x402fd8 1 0.00
0x402fe0 1 0.00
0x402fe8 1 0.00
0x402ff0 1 0.00
0x402ff8 1 0.00
0x403000 1 0.00
0x403008 1 0.00
0x403010 1 0.00
0x403018 1 0.00
0x403020 1 0.00
0x403028 1 0.00
0x403030 1 0.00
0x403038 1 0.00
0x403040 1 0.00
0x403048 1 0.00
0x403050 1 0.00
0x403058 1 0.00
0x403110 1 0.00
0x403118 1 0.00
0x403120 1 0.00
0x403128 1 0.00
0x403130 1 0.00
0x403280 1 0.00
0x403288 1 0.00
0x403598 1 0.00
0x4035a0 1 0.00
0x4035a8 1 0.00
0x4035b0 1 0.00
0x4035b8 1 0.00
0x4035c0 1 0.00
0x4035c8 1 0.00
0x4035d0 1 0.00
0x4035d8 1 0.00
0x4035e0 1 0.00
0x4035e8 1 0.00
0x4035f0 1 0.00
0x403618 1 0.00
0x403620 1 0.00
0x403650 1 0.00
0x403658 1 0.00
0x403660 1 0.00
0x403668 1 0.00
0x403a98 2 0.01
0x403aa0 2 0.01
0x403aa8 2 0.01
0x403ab0 2 0.01
0x403ab8 2 0.01
0x403ac0 2 0.01
0x403ac8 2 0.01
0x403ad0 2 0.01
0x403ad8 2 0.01
0x403ae0 2 0.01
0x403ae8 2 0.01
0x403af0 2 0.01
0x403af8 2 0.01
0x403b00 2 0.01
0x403b08 2 0.01
0x403b10 2 0.01
0x403b18 2 0.01
0x403b20 2 0.01
0x403b28 2 0.01
0x403b30 2 0.01
0x403b38 2 0.01
0x403b40 2 0.01
0x403b48 2 0.01
0x403b50 2 0.01
0x403b58 2 0.01
0x403b60 2 0.01
0x403b68 2 0.01
0x403b70 2 0.01
0x403d28 2 0.01
0x403d30 2 0.01
0x403d38 1 0.00
0x403d40 1 0.00
0x403d48 1 0.00
0x403d50 1 0.00
0x403d58 1 0.00
0x403d60 1 0.00
0x403d68 1 0.00
0x403dd0 2 0.01
0x403dd8 2 0.01
0x403de0 2 0.01
0x403de8 2 0.01
0x403e20 2 0.01
0x403e28 2 0.01
0x403e30 2 0.01
0x403e38 2 0.01
0x403e40 2 0.01
0x403e48 2 0.01
0x403e50 2 0.01
0x403e58 2 0.01
0x403e60 2 0.01
0x403e68 2 0.01
0x403e70 2 0.01
0x404170 2 0.01
0x404178 2 0.01
0x404180 2 0.01
0x404188 2 0.01
0x404190 2 0.01
0x404198 2 0.01
0x4041a0 2 0.01
0x4041a8 2 0.01
0x4041b0 2 0.01
0x4041c8 2 0.01
0x4041d0 2 0.01
0x4041d8 2 0.01
0x4041e0 2 0.01
0x4041e8 2 0.01
0x4041f0 2 0.01
0x4041f8 2 0.01
0x404200 2 0.01
0x404208 2 0.01
0x404210 2 0.01
0x404218 2 0.01
0x4046b0 2 0.01
0x4046b8 2 0.01
0x4046c0 2 0.01
0x4046c8 2 0.01
0x4046d0 2 0.01
0x4046d8 2 0.01
0x4046e0 2 0.01
0x4046e8 2 0.01
0x4046f0 2 0.01
0x4046f8 2 0.01
0x404700 2 0.01
0x404708 2 0.01
0x404710 2 0.01
0x404718 2 0.01
0x404720 2 0.01
0x404738 2 0.01
0x404740 2 0.01
0x404748 2 0.01
0x404750 2 0.01
0x404758 2 0.01
0x404760 2 0.01
0x404768 2 0.01
0x404790 2 0.01
0x404798 2 0.01
0x4047a0 2 0.01
0x4047a8 2 0.01
0x4047b0 2 0.01
0x4047e8 2 0.01
0x4047f0 2 0.01
0x4047f8 2 0.01
0x404800 2 0.01
0x404808 2 0.01
0x404810 2 0.01
0x404818 2 0.01
0x404820 2 0.01
0x404828 2 0.01
0x404830 2 0.01
0x404838 2 0.01
0x404840 2 0.01
0x404848 2 0.01
0x404850 2 0.01
0x404858 2 0.01
0x404860 2 0.01
0x404868 2 0.01
0x404870 2 0.01
0x404878 2 0.01
0x404880 2 0.01
0x404888 2 0.01
0x404890 2 0.01
0x404898 2 0.01
0x4048a0 2 0.01
0x4048a8 2 0.01
0x4048b0 2 0.01
0x4048b8 2 0.01
0x4048c0 2 0.01
0x4048c8 2 0.01
0x4048d0 2 0.01
0x4048d8 1 0.00
0x4048e0 1 0.00
0x4048f8 1 0.00
0x404900 1 0.00
0x404908 1 0.00
0x404910 1 0.00
0x404918 1 0.00
0x404920 1 0.00
0x404928 1 0.00
0x404960 1 0.00
0x404968 1 0.00
0x404970 1 0.00
0x404998 2 0.01
0x4049a0 2 0.01
0x4049a8 2 0.01
0x4049b0 2 0.01
0x4049b8 2 0.01
0x4049c0 2 0.01
0x4049c8 2 0.01
0x4049d0 2 0.01
0x4049d8 2 0.01
0x404a08 2 0.01
0x404ad0 2 0.01
0x404ad8 2 0.01
0x404ae0 2 0.01
0x404b08 2 0.01
0x404b10 2 0.01
0x404b20 2 0.01
0x404b28 2 0.01
0x404b30 2 0.01
0x404b38 2 0.01
0x404b40 2 0.01
0x404b48 2 0.01
0x404b78 2 0.01
0x404b80 2 0.01
0x404b88 2 0.01
0x404b90 2 0.01
0x404ba8 2 0.01
0x404bb0 2 0.01
0x404bb8 2 0.01
0x404bc0 2 0.01
0x404bc8 2 0.01
0x404bd0 2 0.01
0x404bd8 2 0.01
0x404be0 2 0.01
0x405178 3 0.01
0x405180 3 0.01
0x405188 3 0.01
0x405190 3 0.01
0x405198 3 0.01
0x4051a0 3 0.01
0x4051a8 3 0.01
0x4051b0 3 0.01
0x4051b8 3 0.01
0x4051c0 3 0.01
0x4051c8 3 0.01
0x4051d0 3 0.01
0x4051d8 3 0.01
0x4051e0 3 0.01
0x4051e8 3 0.01
0x405390 2 0.01
0x405398 2 0.01
0x4053a0 2 0.01
0x4053a8 2 0.01
0x4053b0 2 0.01
0x4053b8 2 0.01
0x405830 3 0.01
0x405838 3 0.01
0x405840 3 0.01
0x405848 3 0.01
0x405860 3 0.01
0x405868 3 0.01
0x405870 3 0.01
0x405878 3 0.01
0x405880 3 0.01
0x405888 3 0.01
0x405890 3 0.01
0x405898 3 0.01
0x4058a0 3 0.01
0x4058a8 3 0.01
0x4058b0 3 0.01
0x406110 2 0.01
0x406118 2 0.01
0x406120 2 0.01
0x406128 2 0.01
0x406130 2 0.01
0x406138 2 0.01
0x406140 2 0.01
0x406148 2 0.01
0x406150 2 0.01
0x406158 2 0.01
0x406160 2 0.01
0x406168 1 0.00
0x406170 1 0.00
0x406178 1 0.00
0x406180 1 0.00
0x406188 1 0.00
0x406190 1 0.00
0x406198 1 0.00
0x4061a0 1 0.00
0x4061c8 1 0.00
0x4061d0 1 0.00
0x406210 1 0.00
0x406218 1 0.00
0x406220 2 0.01
0x406228 2 0.01
0x406230 2 0.01
0x406238 2 0.01
0x406240 2 0.01
0x406320 2 0.01
0x406328 2 0.01
0x406330 2 0.01
0x406338 2 0.01
0x406340 2 0.01
0x4063d0 3 0.01
0x4063d8 3 0.01
0x4063e0 3 0.01
0x4063f0 3 0.01
0x4063f8 3 0.01
0x406400 3 0.01
0x406408 3 0.01
0x406410 3 0.01
0x406418 3 0.01
0x406440 1 0.00
0x406448 1 0.00
0x406450 1 0.00
0x406458 1 0.00
0x406460 1 0.00
sim_num_insn_by_pc.end_dist

ld_text_base             0x00400000 # program text (code) segment base
ld_text_size                  26016 # program text (code) size in bytes
ld_data_base             0x10000000 # program initialized data segment base
ld_data_size                   4096 # program init'ed `.data' and uninit'ed `.bss' size in bytes
ld_stack_base            0x7fffc000 # program stack segment base (highest address in stack)
ld_stack_size                 16384 # program initial stack size
ld_prog_entry            0x00400140 # program entry point (initial PC)
ld_environ_base          0x7fff8000 # program environment base address address
ld_target_big_endian              0 # target executable endian-ness, non-zero if big endian
mem.page_count                   13 # total number of pages allocated
mem.page_mem                    52k # total size of memory pages allocated
mem.ptab_misses                  13 # total first level page table misses
mem.ptab_accesses            260360 # total page table accesses
mem.ptab_miss_rate           0.0000 # first level page table miss rate

+--------------------------------------------------------------+
| effective code range:         [0, fffffff8]                  |
| effective bpred count:        0                              |
| effective sim cycles:         0                              |
| effective bpred misses:       0                              |
| effective icache misses:      0                              |
+--------------------------------------------------------------+

